GW 0 9 0. 0. 2. 0. 0. 7 .1
GE 1
FR 0 1 0 0 30.
EX 0 0 5 0 1.
GN 1
RP 0 90 1 0500 0 90 1 0 
EN
