CMAdapted from the example of the "libnec"
CE
GW 0 36 0 0 0 -0.042 0.008 0.017 0.001 
GW 0 21 -0.042 0.008 0.017 -0.048 0.021 -0.005 0.001
GW 0 70 -0.048 0.021 -0.005 0.039 0.032 -0.017 0.001
GW 0 70 -0.048 0.021 -0.005 0.035 0.043 0.014 0.001
GW 0 50 -0.042 0.008 0.017 0.017 -0.015 0.014 0.001
GW 0 66 0.017 -0.015 0.014 -0.027 0.04 -0.031 0.001
GW 0 85 -0.027 0.04 -0.031 0.046 -0.01 0.028 0.001
GW 0 47 0.046 -0.01 0.028 -0.013 -0.005 0.031 0.001
GW 0 70 0.017 -0.015 0.014 -0.048 -0.038 -0.04 0.001
GW 0 77 -0.048 -0.038 -0.04 0.049 -0.045 -0.04 0.001
GE 
GN -1
LD 5 0 0 0 3.72e7
FR 0 2 0 0 2400. 100
PT -1
EX 1 1 1 0 0 0 0 0 0 0
RP 0 3 2 0500 90. 90. 10. 10. 1. 0.   
EN
