CMAdapted from the example of the "libnec"
CE
GW 0 36 -0.0001 -0.0001 -0.0001 -0.0002 -0.0002 -0.0001 0.001 
GE 
GN 2 0 0 0 100 50 25 10 0.7 0.6
LD 5 0 0 0 3.72e7
FR 0 1 0 0 2400.
PT -1
EX 5 0 1 0 0. 0. 0. 0. 0. 0.
RP 2 3 2 0500 90. 90. 10. 10. 0. 0.   
EN
