CM 12 ELEMENT LOG PERIODIC ANTENNA IN FREE SPACE 
CM 78 SEGMENTS. SIGMA=O/L RECEIVING AND TRANS. PATTERNS. 
CM DIPOLE LENGTH TO DIAMETER RATIO=150. 
CE TAU=0.93. SIGMA=0.70. BOOM IMPEDANCE=50. OHMS. 
GW 1 5 0.0000 -1.0000 0.0000000 0.00000 1.0000 0.000 .00667 
GW 2 5 -.7527 -1.0753 0. -.7527 1.0753 0. .00717 
GW 3 5 -1.562 -1.1562 0. -1.562 1.1562 0. .00771 
GW 4 5 -2.4323 -1.2432 0. -2.4323 1.2432 0. .00829 
GW 5 5 -3.368 -1.3368 0. -3.368 1.3368 0. .00891 
GW 6 7 -4.3742 -1.4374 0. -4.3742 1.4374 0. .00958 
GW 7 7 -5.4562 -1.5456 0. -5.4562 1.5456 0. .0103 
GW 8 7 -6.6195 -1.6619 0. -6.6195 1.6619 0. .01108 
GW 9 7 -7.8705 -1.787 0. -7.8705 1.787 0. .01191 
GW 10 7 -9.2156 -1.9215 0. -9.2156 1.9215 0. .01281 
GW 11 9 -10.6619 -2.0662 0. -10.6619 2.0662 0. .01377 
GW 12 9 -12.2171 -2.2217 0. -12.2171 2.2217 0. .01481 
GE 
FR 0 0 0 0 46.29 0. 
TL 1 3 2 3 -50. 0. 0. 0. 0. 0.
TL 2 3 3 3 -50. 0. 0. 0. 0. 0.
TL 3 3 4 3 -50. 0. 0. 0. 0. 0.
TL 4 3 5 3 -50. 0. 0. 0. 0. 0.
TL 5 3 6 4 -50. 0. 0. 0. 0. 0.
TL 6 4 7 4 -50. 0. 0. 0. 0. 0.
TL 7 4 8 4 -50. 0. 0. 0. 0. 0.
TL 8 4 9 4 -50. 0. 0. 0. 0. 0.
TL 9 4 10 4 -50. 0. 0. 0. 0. 0.
TL 10 4 11 5 -50. 0. 0. 0. 0. 0.
TL 11 5 12 5 -50. 0. 0. 0. 0. .02 
EX 0 1 3 10 1 0
RP 0 37 1 1110 90. 0. -5. 0.
EN
