CECYLINDER WITH ATTACHED WIRES
SP 0 0 10 0 7.3333 0. 0. 38.4
SP 0 0 10 0 0. 0. 0. 38.4
SP 0 0 10 0 -7.3333 0. 0. 38.4
GM 0 1 0. 0. 30.
SP 0 0 6.89 0. 11. 90. 0. 44.88
SP 0 0 6.89 0. -11. -90. 0. 44.88
GR 0 6
SP 0 0 0. 0. 11. 90. 0. 44.89
SP 0 0 0. 0. -11. -90. 0. 44.89
GW 1 4 0. 0. 11. 0. 0. 23. .1 
GW 2 5 10. 0. 0. 27.6 0. 0. .2 
GS 0 0 .01
GE
FR 0 1 0 0 465.84
CP 1 1 2 1
EX 0 1 1 0 1.
RP 0 73 1 1000 0. 0. 5. 0.
EX 0 2 1 0 1.
XQ
EN
