CM GA - NEC FILE
CE go blue ! 
GW 0 2 0 0 0 0.019 0.0266 0.0034 0.001
GE 1
FR 0 1 0 0 2400
EX 0 0 5 0 1.
GN 1
RP 0 360 360 0500 0 0 10 10
EN
