CM GA - NEC FILE
CE go blue ! 
GW 0 640 5.79 3.58 7.21 8.99 1.74 0.8 0.54
GE 1
FR 0 1 0 0 2400
EX 0 0 5 0 1.
GN 1
RP 0 90 1 0500 0 90 1 0
EN
