CM 2el Yagi 12M
CE
GW 1 11 -9.1 0 40 9.1 0 40 .04165
GW 2 11 -8.8 -4.8 40 8.8 -4.8 40 .04165
GW 3 1 -.2 0 1 .2 0 1 2.6706E-03
GS 0 0 .3048
GE 1
GN 2 0 0 0 13 .005 0 0 0 0
EX 0 3 1 0 1 0
LD 4 2 6 6 1 100 0
LD 5 1 1 11 2.4938E7
LD 5 2 1 11 2.4938E7
LD 5 3 1 1 2.4938E7
TL 1 6 3 1 50 18.01 0 0 0 0
FR 0 1 0 0 24.95 0
RP 0 1 361 0500 76 0 1 1
EN
