CM GA - NEC FILE
CE
GW 1 120  0 0 0 0.04749999940395 -0.02979999966919 0.1228000000119 0.001
GW 0 160  0.04749999940395 -0.02979999966919  0.1228000000119    0.09369999915361  0.09889999777078  0.006000000052154 0.001
GW 0 178  0.09369999915361  0.09889999777078  0.006000000052154 -0.0388000011444  -0.02030000090599  0.09640000015497 0.001
GW 0 76  -0.0388000011444  -0.02030000090599  0.09640000015497  -0.06069999933242  0.02470000088214  0.02830000035464 0.001
GW 0 58  -0.06069999933242  0.02470000088214  0.02830000035464  -0.02329999953508 -0.006899999920278 0.07109999656677 0.001
GW 0 142 -0.02329999953508 -0.006899999920278 0.07109999656677   0.0798000022768  -0.1207800060510   0.1158000007271 0.001
GW 0 142  0.0798000022768  -0.1207800060510   0.1158000007271   -0.02329999953508 -0.006880000233650 0.07109999656677 0.001
GE 1
GN 1 0 0 0 0 0 0 0 0 0
FR 0 1 0 0 1600 0
EX 0  1  1  0  1  0  0  0  0  0
RP 0 33 36 1011 -80 0 5 5 0 0
