CM *** Richtanzenne K 5332187 ***
CM *** 87.5 - 108 MHz ***
CM *** GW 1 = vertikal   GW 2 , 3 = horizontal ***
CE
GW 1,11, 0.785,-0.700, 0.790,  0.785, 0.700, 0.790,  0.020
GW 2,05, 0.000,-0.785, 0.790,  0.690,-0.785, 0.630,  0.020
GW 3,05, 0.000, 0.785, 0.790,  0.690, 0.785, 0.630,  0.020
SM 3,06, 0.000,-1.100, 0.000,  1.100,-1.100, 0.000
SC 0,00, 1.100, 1.100, 0.000,  0.000, 1.100, 0.000
GX 1,100
GE
FR 0,1,0,0,100.0
EX 0,0,06,00,10.,0
EX 0,0,27,00,10.,0
LD 5,0,0,0,3.72E+07
PT -1
'PL 3,1,0,3
RP 0,361,2,1000,0.,0.,1.,90.
EN
