CM --- NEC2 Input File created by xnec2c 0.9-beta ---
CE --- End Comments ---
GW  1  8  0.0  0.0  0.0  0.0  0.0  1.0  .003
SM  3  3  0.5  0.5  0.0  0.5 -0.5  0.0  0.0
SC  0  0 -0.5 -0.5  0.0  0.0  0.0  0.0  0.0
GE  0 0 0 0 0 0 0 0 0
EX  0 1  1  0  1.0  0.0  0.0  0.0  0.0  0.0
EK  0
FR 0 11 0 0 50.0 5.0 0.0 0.0 0.0 0.0
XQ 0 0 0 0 0 0 0 0 0 0
EN 0 0 0 0 0 0 0 0 0 0
