GW 1 1 9.375 -9.375 0 6.696428571428571 -9.375 0 0.05
GW 2 1 6.696428571428571 -9.375 0 4.017857142858729 -9.375 0 0.05
GW 3 1 4.017857142858729 -9.375 0 1.339285714293643 -9.375 0 0.05
GW 4 1 1.339285714293643 -9.375 0 -1.339285714274611 -9.375 0 0.05
GW 5 1 -1.339285714274611 -9.375 0 -4.01785714284604 -9.375 0 0.05
GW 6 1 -4.01785714284604 -9.375 0 -6.696428571422228 -9.375 0 0.05
GW 7 1 -6.696428571422228 -9.375 0 -9.375 -9.375 0 0.05
GW 8 1 -9.375 -9.375 0 -9.375 -6.696428571428571 0 0.05
GW 9 1 -9.375 -6.696428571428571 0 -9.375 -4.017857142858729 0 0.05
GW 10 1 -9.375 -4.017857142858729 0 -9.375 -1.339285714293643 0 0.05
GW 11 1 -9.375 -1.339285714293643 0 -9.375 1.339285714274611 0 0.05
GW 12 1 -9.375 1.339285714274611 0 -9.375 4.01785714284604 0 0.05
GW 13 1 -9.375 4.01785714284604 0 -9.375 6.696428571422228 0 0.05
GW 14 1 -9.375 6.696428571422228 0 -9.375 9.375 0 0.05
GW 15 1 -9.375 9.375 0 -6.696428571428571 9.375 0 0.05
GW 16 1 -6.696428571428571 9.375 0 -4.017857142858729 9.375 0 0.05
GW 17 1 -4.017857142858729 9.375 0 -1.339285714293643 9.375 0 0.05
GW 18 1 -1.339285714293643 9.375 0 1.339285714274611 9.375 0 0.05
GW 19 1 1.339285714274611 9.375 0 4.01785714284604 9.375 0 0.05
GW 20 1 4.01785714284604 9.375 0 6.696428571422228 9.375 0 0.05
GW 21 1 6.696428571422228 9.375 0 9.375 9.375 0 0.05
GW 22 1 9.375 9.375 0 9.375 6.696428571428571 0 0.05
GW 23 1 9.375 6.696428571428571 0 9.375 4.017857142858729 0 0.05
GW 24 1 9.375 4.017857142858729 0 9.375 1.339285714293643 0 0.05
GW 25 1 9.375 1.339285714293643 0 9.375 -1.339285714274611 0 0.05
GW 26 1 9.375 -1.339285714274611 0 9.375 -4.01785714284604 0 0.05
GW 27 1 9.375 -4.01785714284604 0 9.375 -6.696428571422228 0 0.05
GW 28 1 9.375 -6.696428571422228 0 9.375 -9.375 0 0.05
GW 29 1 7.5 -7.5 1.2 5.357142857142858 -7.5 1.2 0.05
GW 30 1 5.357142857142858 -7.5 1.2 3.214285714286508 -7.5 1.2 0.05
GW 31 1 3.214285714286508 -7.5 1.2 1.071428571432536 -7.5 1.2 0.05
GW 32 1 1.071428571432536 -7.5 1.2 -1.07142857142302 -7.5 1.2 0.05
GW 33 1 -1.07142857142302 -7.5 1.2 -3.214285714280164 -7.5 1.2 0.05
GW 34 1 -3.214285714280164 -7.5 1.2 -5.357142857139685 -7.5 1.2 0.05
GW 35 1 -5.357142857139685 -7.5 1.2 -7.5 -7.5 1.2 0.05
GW 36 1 -7.5 -7.5 1.2 -7.5 -5.357142857142858 1.2 0.05
GW 37 1 -7.5 -5.357142857142858 1.2 -7.5 -3.214285714286508 1.2 0.05
GW 38 1 -7.5 -3.214285714286508 1.2 -7.5 -1.071428571432536 1.2 0.05
GW 39 1 -7.5 -1.071428571432536 1.2 -7.5 1.07142857142302 1.2 0.05
GW 40 1 -7.5 1.07142857142302 1.2 -7.5 3.214285714280164 1.2 0.05
GW 41 1 -7.5 3.214285714280164 1.2 -7.5 5.357142857139685 1.2 0.05
GW 42 1 -7.5 5.357142857139685 1.2 -7.5 7.5 1.2 0.05
GW 43 1 -7.5 7.5 1.2 -5.357142857142858 7.5 1.2 0.05
GW 44 1 -5.357142857142858 7.5 1.2 -3.214285714286508 7.5 1.2 0.05
GW 45 1 -3.214285714286508 7.5 1.2 -1.071428571432536 7.5 1.2 0.05
GW 46 1 -1.071428571432536 7.5 1.2 1.07142857142302 7.5 1.2 0.05
GW 47 1 1.07142857142302 7.5 1.2 3.214285714280164 7.5 1.2 0.05
GW 48 1 3.214285714280164 7.5 1.2 5.357142857139685 7.5 1.2 0.05
GW 49 1 5.357142857139685 7.5 1.2 7.5 7.5 1.2 0.05
GW 50 1 7.5 7.5 1.2 7.5 5.357142857142858 1.2 0.05
GW 51 1 7.5 5.357142857142858 1.2 7.5 3.214285714286508 1.2 0.05
GW 52 1 7.5 3.214285714286508 1.2 7.5 1.071428571432536 1.2 0.05
GW 53 1 7.5 1.071428571432536 1.2 7.5 -1.07142857142302 1.2 0.05
GW 54 1 7.5 -1.07142857142302 1.2 7.5 -3.214285714280164 1.2 0.05
GW 55 1 7.5 -3.214285714280164 1.2 7.5 -5.357142857139685 1.2 0.05
GW 56 1 7.5 -5.357142857139685 1.2 7.5 -7.5 1.2 0.05
GW 57 1 3 -3 1.2 8.326672684688674e-12 -3 1.2 0.05
GW 58 1 8.326672684688674e-12 -3 1.2 -3 -3 1.2 0.05
GW 59 1 -3 -3 1.2 -3 -8.326672684688674e-12 1.2 0.05
GW 60 1 -3 -8.326672684688674e-12 1.2 -3 3 1.2 0.05
GW 61 1 -3 3 1.2 -8.326672684688674e-12 3 1.2 0.05
GW 62 1 -8.326672684688674e-12 3 1.2 3 3 1.2 0.05
GW 63 1 3 3 1.2 3 8.326672684688674e-12 1.2 0.05
GW 64 1 3 8.326672684688674e-12 1.2 3 -3 1.2 0.05
GW 65 1 9.375 1.339285714293643 0 7.107750735368153 2.552791765646827 0 0.05
GW 66 1 7.107750735368153 2.552791765646827 0 9.375 4.017857142858729 0 0.05
GW 67 1 9.375 1.339285714293643 0 9.375 4.017857142858729 0 0.05
GW 68 1 -1.339285714293643 9.375 0 -3.086993814918736 6.844748159019945 0 0.05
GW 69 1 -3.086993814918736 6.844748159019945 0 -4.017857142858729 9.375 0 0.05
GW 70 1 -1.339285714293643 9.375 0 -4.017857142858729 9.375 0 0.05
GW 71 1 -9.375 -1.339285714293643 0 -7.040876594749187 -2.58217861523339 0 0.05
GW 72 1 -7.040876594749187 -2.58217861523339 0 -9.375 -4.017857142858729 0 0.05
GW 73 1 -9.375 -1.339285714293643 0 -9.375 -4.017857142858729 0 0.05
GW 74 1 -7.040876594749187 -2.58217861523339 0 -4.422068399917589 -3.214523613654571 0 0.05
GW 75 1 -4.422068399917589 -3.214523613654571 0 -7.025381012372589 -5.201448794742288 0 0.05
GW 76 1 -7.040876594749187 -2.58217861523339 0 -7.025381012372589 -5.201448794742288 0 0.05
GW 77 1 7.107750735368153 2.552791765646827 0 4.477133499339022 3.163876165159997 0 0.05
GW 78 1 4.477133499339022 3.163876165159997 0 6.689580159414997 5.10634656419997 0 0.05
GW 79 1 7.107750735368153 2.552791765646827 0 6.689580159414997 5.10634656419997 0 0.05
GW 80 1 6.962538025261316 -5.753525177529361 0 9.375 -4.01785714284604 0 0.05
GW 81 1 9.375 -4.01785714284604 0 9.375 -6.696428571422228 0 0.05
GW 82 1 6.962538025261316 -5.753525177529361 0 9.375 -6.696428571422228 0 0.05
GW 83 1 3.75241482593574 -4.765438098087474 0 6.962538025261316 -5.753525177529361 0 0.05
GW 84 1 6.962538025261316 -5.753525177529361 0 5.070790366291444 -7.364935515320116 0 0.05
GW 85 1 3.75241482593574 -4.765438098087474 0 5.070790366291444 -7.364935515320116 0 0.05
GW 86 1 -3.318106139849093 4.089524938451827 0 -1.798413501238099 2.096746902243944 0 0.05
GW 87 1 -1.798413501238099 2.096746902243944 0 -4.031556072197924 1.818807848884627 0 0.05
GW 88 1 -3.318106139849093 4.089524938451827 0 -4.031556072197924 1.818807848884627 0 0.05
GW 89 1 0.04626589405290582 -0.04428204387228096 0 2.737081140669132 -0.4665375240605305 0 0.05
GW 90 1 2.737081140669132 -0.4665375240605305 0 1.920542215495787 -2.444067826543754 0 0.05
GW 91 1 0.04626589405290582 -0.04428204387228096 0 1.920542215495787 -2.444067826543754 0 0.05
GW 92 1 2.737081140669132 -0.4665375240605305 0 0.04626589405290582 -0.04428204387228096 0 0.05
GW 93 1 0.04626589405290582 -0.04428204387228096 0 2.371953240025473 1.671042667466238 0 0.05
GW 94 1 2.737081140669132 -0.4665375240605305 0 2.371953240025473 1.671042667466238 0 0.05
GW 95 1 0.04626589405290582 -0.04428204387228096 0 -2.495989652860271 0.1076505093269847 0 0.05
GW 96 1 -2.495989652860271 0.1076505093269847 0 -1.798413501238099 2.096746902243944 0 0.05
GW 97 1 0.04626589405290582 -0.04428204387228096 0 -1.798413501238099 2.096746902243944 0 0.05
GW 98 1 -2.495989652860271 0.1076505093269847 0 -4.031556072197924 1.818807848884627 0 0.05
GW 99 1 -4.031556072197924 1.818807848884627 0 -1.798413501238099 2.096746902243944 0 0.05
GW 100 1 -2.495989652860271 0.1076505093269847 0 -1.798413501238099 2.096746902243944 0 0.05
GW 101 1 -2.495989652860271 0.1076505093269847 0 0.04626589405290582 -0.04428204387228096 0 0.05
GW 102 1 0.04626589405290582 -0.04428204387228096 0 -2.284574740913827 -1.749273111998205 0 0.05
GW 103 1 -2.495989652860271 0.1076505093269847 0 -2.284574740913827 -1.749273111998205 0 0.05
GW 104 1 -0.338630110356612 -2.735015319983185 0 0.04626589405290582 -0.04428204387228096 0 0.05
GW 105 1 0.04626589405290582 -0.04428204387228096 0 1.920542215495787 -2.444067826543754 0 0.05
GW 106 1 -0.338630110356612 -2.735015319983185 0 1.920542215495787 -2.444067826543754 0 0.05
GW 107 1 0.04626589405290582 -0.04428204387228096 0 -0.338630110356612 -2.735015319983185 0 0.05
GW 108 1 -0.338630110356612 -2.735015319983185 0 -2.284574740913827 -1.749273111998205 0 0.05
GW 109 1 0.04626589405290582 -0.04428204387228096 0 -2.284574740913827 -1.749273111998205 0 0.05
GW 110 1 0.4377855422001767 2.586535883288115 0 0.04626589405290582 -0.04428204387228096 0 0.05
GW 111 1 0.04626589405290582 -0.04428204387228096 0 -1.798413501238099 2.096746902243944 0 0.05
GW 112 1 0.4377855422001767 2.586535883288115 0 -1.798413501238099 2.096746902243944 0 0.05
GW 113 1 0.04626589405290582 -0.04428204387228096 0 0.4377855422001767 2.586535883288115 0 0.05
GW 114 1 0.4377855422001767 2.586535883288115 0 2.371953240025473 1.671042667466238 0 0.05
GW 115 1 0.04626589405290582 -0.04428204387228096 0 2.371953240025473 1.671042667466238 0 0.05
GW 116 1 6.166308673626426 -3.640777451789195 0 6.962538025261316 -5.753525177529361 0 0.05
GW 117 1 6.962538025261316 -5.753525177529361 0 3.75241482593574 -4.765438098087474 0 0.05
GW 118 1 6.166308673626426 -3.640777451789195 0 3.75241482593574 -4.765438098087474 0 0.05
GW 119 1 4.477133499339022 3.163876165159997 0 4.991271700300564 0.5928870636193028 0 0.05
GW 120 1 4.991271700300564 0.5928870636193028 0 2.371953240025473 1.671042667466238 0 0.05
GW 121 1 4.477133499339022 3.163876165159997 0 2.371953240025473 1.671042667466238 0 0.05
GW 122 1 -4.422068399917589 -3.214523613654571 0 -4.945135803440198 -0.7253315653909317 0 0.05
GW 123 1 -4.945135803440198 -0.7253315653909317 0 -2.284574740913827 -1.749273111998205 0 0.05
GW 124 1 -4.422068399917589 -3.214523613654571 0 -2.284574740913827 -1.749273111998205 0 0.05
GW 125 1 -3.318106139849093 4.089524938451827 0 -0.5802204548059274 4.784621367905854 0 0.05
GW 126 1 -0.5802204548059274 4.784621367905854 0 -1.798413501238099 2.096746902243944 0 0.05
GW 127 1 -3.318106139849093 4.089524938451827 0 -1.798413501238099 2.096746902243944 0 0.05
GW 128 1 3.75241482593574 -4.765438098087474 0 0.6338814896681605 -4.653060104590379 0 0.05
GW 129 1 0.6338814896681605 -4.653060104590379 0 1.920542215495787 -2.444067826543754 0 0.05
GW 130 1 3.75241482593574 -4.765438098087474 0 1.920542215495787 -2.444067826543754 0 0.05
GW 131 1 -1.859813274983875 -4.097556872864168 0 -4.422068399917589 -3.214523613654571 0 0.05
GW 132 1 -4.422068399917589 -3.214523613654571 0 -2.284574740913827 -1.749273111998205 0 0.05
GW 133 1 -1.859813274983875 -4.097556872864168 0 -2.284574740913827 -1.749273111998205 0 0.05
GW 134 1 3.75241482593574 -4.765438098087474 0 4.438683231217083 -1.990649444109428 0 0.05
GW 135 1 4.438683231217083 -1.990649444109428 0 6.166308673626426 -3.640777451789195 0 0.05
GW 136 1 3.75241482593574 -4.765438098087474 0 6.166308673626426 -3.640777451789195 0 0.05
GW 137 1 4.438683231217083 -1.990649444109428 0 3.75241482593574 -4.765438098087474 0 0.05
GW 138 1 3.75241482593574 -4.765438098087474 0 1.920542215495787 -2.444067826543754 0 0.05
GW 139 1 4.438683231217083 -1.990649444109428 0 1.920542215495787 -2.444067826543754 0 0.05
GW 140 1 4.477133499339022 3.163876165159997 0 4.076508745742529 6.059929662954254 0 0.05
GW 141 1 4.076508745742529 6.059929662954254 0 6.689580159414997 5.10634656419997 0 0.05
GW 142 1 4.477133499339022 3.163876165159997 0 6.689580159414997 5.10634656419997 0 0.05
GW 143 1 2.105648375805295 4.129671922143112 0 4.477133499339022 3.163876165159997 0 0.05
GW 144 1 4.477133499339022 3.163876165159997 0 2.371953240025473 1.671042667466238 0 0.05
GW 145 1 2.105648375805295 4.129671922143112 0 2.371953240025473 1.671042667466238 0 0.05
GW 146 1 -4.422068399917589 -3.214523613654571 0 -4.302571336824886 -6.755567895399417 0 0.05
GW 147 1 -4.302571336824886 -6.755567895399417 0 -7.025381012372589 -5.201448794742288 0 0.05
GW 148 1 -4.422068399917589 -3.214523613654571 0 -7.025381012372589 -5.201448794742288 0 0.05
GW 149 1 -0.338630110356612 -2.735015319983185 0 1.920542215495787 -2.444067826543754 0 0.05
GW 150 1 1.920542215495787 -2.444067826543754 0 0.6338814896681605 -4.653060104590379 0 0.05
GW 151 1 -0.338630110356612 -2.735015319983185 0 0.6338814896681605 -4.653060104590379 0 0.05
GW 152 1 1.920542215495787 -2.444067826543754 0 2.737081140669132 -0.4665375240605305 0 0.05
GW 153 1 2.737081140669132 -0.4665375240605305 0 4.438683231217083 -1.990649444109428 0 0.05
GW 154 1 1.920542215495787 -2.444067826543754 0 4.438683231217083 -1.990649444109428 0 0.05
GW 155 1 0.4377855422001767 2.586535883288115 0 -1.798413501238099 2.096746902243944 0 0.05
GW 156 1 -1.798413501238099 2.096746902243944 0 -0.5802204548059274 4.784621367905854 0 0.05
GW 157 1 0.4377855422001767 2.586535883288115 0 -0.5802204548059274 4.784621367905854 0 0.05
GW 158 1 -2.284574740913827 -1.749273111998205 0 -0.338630110356612 -2.735015319983185 0 0.05
GW 159 1 -0.338630110356612 -2.735015319983185 0 -1.859813274983875 -4.097556872864168 0 0.05
GW 160 1 -2.284574740913827 -1.749273111998205 0 -1.859813274983875 -4.097556872864168 0 0.05
GW 161 1 -2.495989652860271 0.1076505093269847 0 -4.945135803440198 -0.7253315653909317 0 0.05
GW 162 1 -4.945135803440198 -0.7253315653909317 0 -4.031556072197924 1.818807848884627 0 0.05
GW 163 1 -2.495989652860271 0.1076505093269847 0 -4.031556072197924 1.818807848884627 0 0.05
GW 164 1 -2.495989652860271 0.1076505093269847 0 -2.284574740913827 -1.749273111998205 0 0.05
GW 165 1 -2.284574740913827 -1.749273111998205 0 -4.945135803440198 -0.7253315653909317 0 0.05
GW 166 1 -2.495989652860271 0.1076505093269847 0 -4.945135803440198 -0.7253315653909317 0 0.05
GW 167 1 2.371953240025473 1.671042667466238 0 0.4377855422001767 2.586535883288115 0 0.05
GW 168 1 0.4377855422001767 2.586535883288115 0 2.105648375805295 4.129671922143112 0 0.05
GW 169 1 2.371953240025473 1.671042667466238 0 2.105648375805295 4.129671922143112 0 0.05
GW 170 1 2.737081140669132 -0.4665375240605305 0 2.371953240025473 1.671042667466238 0 0.05
GW 171 1 2.371953240025473 1.671042667466238 0 4.991271700300564 0.5928870636193028 0 0.05
GW 172 1 2.737081140669132 -0.4665375240605305 0 4.991271700300564 0.5928870636193028 0 0.05
GW 173 1 -1.859813274983875 -4.097556872864168 0 -4.302571336824886 -6.755567895399417 0 0.05
GW 174 1 -4.302571336824886 -6.755567895399417 0 -4.422068399917589 -3.214523613654571 0 0.05
GW 175 1 -1.859813274983875 -4.097556872864168 0 -4.422068399917589 -3.214523613654571 0 0.05
GW 176 1 2.105648375805295 4.129671922143112 0 4.076508745742529 6.059929662954254 0 0.05
GW 177 1 4.076508745742529 6.059929662954254 0 4.477133499339022 3.163876165159997 0 0.05
GW 178 1 2.105648375805295 4.129671922143112 0 4.477133499339022 3.163876165159997 0 0.05
GW 179 1 9.375 4.017857142858729 0 7.107750735368153 2.552791765646827 0 0.05
GW 180 1 7.107750735368153 2.552791765646827 0 6.689580159414997 5.10634656419997 0 0.05
GW 181 1 9.375 4.017857142858729 0 6.689580159414997 5.10634656419997 0 0.05
GW 182 1 -9.375 -4.017857142858729 0 -7.040876594749187 -2.58217861523339 0 0.05
GW 183 1 -7.040876594749187 -2.58217861523339 0 -7.025381012372589 -5.201448794742288 0 0.05
GW 184 1 -9.375 -4.017857142858729 0 -7.025381012372589 -5.201448794742288 0 0.05
GW 185 1 1.339285714293643 -9.375 0 -1.339285714274611 -9.375 0 0.05
GW 186 1 -1.339285714274611 -9.375 0 -0.804536687442 -7.056579277445207 0 0.05
GW 187 1 1.339285714293643 -9.375 0 -0.804536687442 -7.056579277445207 0 0.05
GW 188 1 9.375 -1.339285714274611 0 9.375 -4.01785714284604 0 0.05
GW 189 1 9.375 -4.01785714284604 0 6.923381100557132 -1.490136501556707 0 0.05
GW 190 1 9.375 -1.339285714274611 0 6.923381100557132 -1.490136501556707 0 0.05
GW 191 1 6.166308673626426 -3.640777451789195 0 9.375 -4.01785714284604 0 0.05
GW 192 1 9.375 -4.01785714284604 0 6.962538025261316 -5.753525177529361 0 0.05
GW 193 1 6.166308673626426 -3.640777451789195 0 6.962538025261316 -5.753525177529361 0 0.05
GW 194 1 6.166308673626426 -3.640777451789195 0 6.923381100557132 -1.490136501556707 0 0.05
GW 195 1 6.923381100557132 -1.490136501556707 0 9.375 -4.01785714284604 0 0.05
GW 196 1 6.166308673626426 -3.640777451789195 0 9.375 -4.01785714284604 0 0.05
GW 197 1 1.339285714274611 9.375 0 4.01785714284604 9.375 0 0.05
GW 198 1 4.01785714284604 9.375 0 1.669158199314807 6.723974746187205 0 0.05
GW 199 1 1.339285714274611 9.375 0 1.669158199314807 6.723974746187205 0 0.05
GW 200 1 -9.375 1.339285714274611 0 -9.375 4.01785714284604 0 0.05
GW 201 1 -9.375 4.01785714284604 0 -6.710698696336139 1.630506943660993 0 0.05
GW 202 1 -9.375 1.339285714274611 0 -6.710698696336139 1.630506943660993 0 0.05
GW 203 1 7.107750735368153 2.552791765646827 0 4.991271700300564 0.5928870636193028 0 0.05
GW 204 1 4.991271700300564 0.5928870636193028 0 4.477133499339022 3.163876165159997 0 0.05
GW 205 1 7.107750735368153 2.552791765646827 0 4.477133499339022 3.163876165159997 0 0.05
GW 206 1 -3.086993814918736 6.844748159019945 0 -0.5802204548059274 4.784621367905854 0 0.05
GW 207 1 -0.5802204548059274 4.784621367905854 0 -3.318106139849093 4.089524938451827 0 0.05
GW 208 1 -3.086993814918736 6.844748159019945 0 -3.318106139849093 4.089524938451827 0 0.05
GW 209 1 -4.031556072197924 1.818807848884627 0 -4.945135803440198 -0.7253315653909317 0 0.05
GW 210 1 -4.945135803440198 -0.7253315653909317 0 -6.710698696336139 1.630506943660993 0 0.05
GW 211 1 -4.031556072197924 1.818807848884627 0 -6.710698696336139 1.630506943660993 0 0.05
GW 212 1 -7.040876594749187 -2.58217861523339 0 -4.945135803440198 -0.7253315653909317 0 0.05
GW 213 1 -4.945135803440198 -0.7253315653909317 0 -4.422068399917589 -3.214523613654571 0 0.05
GW 214 1 -7.040876594749187 -2.58217861523339 0 -4.422068399917589 -3.214523613654571 0 0.05
GW 215 1 -9.375 -1.339285714293643 0 -7.511211570050574 -0.3329693780054978 0 0.05
GW 216 1 -7.511211570050574 -0.3329693780054978 0 -7.040876594749187 -2.58217861523339 0 0.05
GW 217 1 -9.375 -1.339285714293643 0 -7.040876594749187 -2.58217861523339 0 0.05
GW 218 1 -4.945135803440198 -0.7253315653909317 0 -7.511211570050574 -0.3329693780054978 0 0.05
GW 219 1 -7.511211570050574 -0.3329693780054978 0 -6.710698696336139 1.630506943660993 0 0.05
GW 220 1 -4.945135803440198 -0.7253315653909317 0 -6.710698696336139 1.630506943660993 0 0.05
GW 221 1 -7.511211570050574 -0.3329693780054978 0 -4.945135803440198 -0.7253315653909317 0 0.05
GW 222 1 -4.945135803440198 -0.7253315653909317 0 -7.040876594749187 -2.58217861523339 0 0.05
GW 223 1 -7.511211570050574 -0.3329693780054978 0 -7.040876594749187 -2.58217861523339 0 0.05
GW 224 1 -1.339285714293643 9.375 0 -0.3183934667911458 7.391334735821045 0 0.05
GW 225 1 -0.3183934667911458 7.391334735821045 0 -3.086993814918736 6.844748159019945 0 0.05
GW 226 1 -1.339285714293643 9.375 0 -3.086993814918736 6.844748159019945 0 0.05
GW 227 1 -0.5802204548059274 4.784621367905854 0 -0.3183934667911458 7.391334735821045 0 0.05
GW 228 1 -0.3183934667911458 7.391334735821045 0 1.669158199314807 6.723974746187205 0 0.05
GW 229 1 -0.5802204548059274 4.784621367905854 0 1.669158199314807 6.723974746187205 0 0.05
GW 230 1 -0.3183934667911458 7.391334735821045 0 -0.5802204548059274 4.784621367905854 0 0.05
GW 231 1 -0.5802204548059274 4.784621367905854 0 -3.086993814918736 6.844748159019945 0 0.05
GW 232 1 -0.3183934667911458 7.391334735821045 0 -3.086993814918736 6.844748159019945 0 0.05
GW 233 1 9.375 1.339285714293643 0 7.554480707245171 0.331108465545691 0 0.05
GW 234 1 7.554480707245171 0.331108465545691 0 7.107750735368153 2.552791765646827 0 0.05
GW 235 1 9.375 1.339285714293643 0 7.107750735368153 2.552791765646827 0 0.05
GW 236 1 4.991271700300564 0.5928870636193028 0 7.554480707245171 0.331108465545691 0 0.05
GW 237 1 7.554480707245171 0.331108465545691 0 6.923381100557132 -1.490136501556707 0 0.05
GW 238 1 4.991271700300564 0.5928870636193028 0 6.923381100557132 -1.490136501556707 0 0.05
GW 239 1 7.554480707245171 0.331108465545691 0 4.991271700300564 0.5928870636193028 0 0.05
GW 240 1 4.991271700300564 0.5928870636193028 0 7.107750735368153 2.552791765646827 0 0.05
GW 241 1 7.554480707245171 0.331108465545691 0 7.107750735368153 2.552791765646827 0 0.05
GW 242 1 0.6338814896681605 -4.653060104590379 0 2.346644145379164 -7.052691914135518 0 0.05
GW 243 1 2.346644145379164 -7.052691914135518 0 -0.804536687442 -7.056579277445207 0 0.05
GW 244 1 0.6338814896681605 -4.653060104590379 0 -0.804536687442 -7.056579277445207 0 0.05
GW 245 1 2.346644145379164 -7.052691914135518 0 1.339285714293643 -9.375 0 0.05
GW 246 1 1.339285714293643 -9.375 0 -0.804536687442 -7.056579277445207 0 0.05
GW 247 1 2.346644145379164 -7.052691914135518 0 -0.804536687442 -7.056579277445207 0 0.05
GW 248 1 1.339285714274611 9.375 0 -0.3183934667911458 7.391334735821045 0 0.05
GW 249 1 -0.3183934667911458 7.391334735821045 0 -1.339285714293643 9.375 0 0.05
GW 250 1 1.339285714274611 9.375 0 -1.339285714293643 9.375 0 0.05
GW 251 1 1.339285714274611 9.375 0 1.669158199314807 6.723974746187205 0 0.05
GW 252 1 1.669158199314807 6.723974746187205 0 -0.3183934667911458 7.391334735821045 0 0.05
GW 253 1 1.339285714274611 9.375 0 -0.3183934667911458 7.391334735821045 0 0.05
GW 254 1 -9.375 1.339285714274611 0 -7.511211570050574 -0.3329693780054978 0 0.05
GW 255 1 -7.511211570050574 -0.3329693780054978 0 -9.375 -1.339285714293643 0 0.05
GW 256 1 -9.375 1.339285714274611 0 -9.375 -1.339285714293643 0 0.05
GW 257 1 -9.375 1.339285714274611 0 -6.710698696336139 1.630506943660993 0 0.05
GW 258 1 -6.710698696336139 1.630506943660993 0 -7.511211570050574 -0.3329693780054978 0 0.05
GW 259 1 -9.375 1.339285714274611 0 -7.511211570050574 -0.3329693780054978 0 0.05
GW 260 1 9.375 -1.339285714274611 0 7.554480707245171 0.331108465545691 0 0.05
GW 261 1 7.554480707245171 0.331108465545691 0 9.375 1.339285714293643 0 0.05
GW 262 1 9.375 -1.339285714274611 0 9.375 1.339285714293643 0 0.05
GW 263 1 9.375 -1.339285714274611 0 6.923381100557132 -1.490136501556707 0 0.05
GW 264 1 6.923381100557132 -1.490136501556707 0 7.554480707245171 0.331108465545691 0 0.05
GW 265 1 9.375 -1.339285714274611 0 7.554480707245171 0.331108465545691 0 0.05
GW 266 1 2.737081140669132 -0.4665375240605305 0 4.991271700300564 0.5928870636193028 0 0.05
GW 267 1 4.991271700300564 0.5928870636193028 0 4.438683231217083 -1.990649444109428 0 0.05
GW 268 1 2.737081140669132 -0.4665375240605305 0 4.438683231217083 -1.990649444109428 0 0.05
GW 269 1 6.166308673626426 -3.640777451789195 0 4.438683231217083 -1.990649444109428 0 0.05
GW 270 1 4.438683231217083 -1.990649444109428 0 6.923381100557132 -1.490136501556707 0 0.05
GW 271 1 6.166308673626426 -3.640777451789195 0 6.923381100557132 -1.490136501556707 0 0.05
GW 272 1 4.438683231217083 -1.990649444109428 0 4.991271700300564 0.5928870636193028 0 0.05
GW 273 1 4.991271700300564 0.5928870636193028 0 6.923381100557132 -1.490136501556707 0 0.05
GW 274 1 4.438683231217083 -1.990649444109428 0 6.923381100557132 -1.490136501556707 0 0.05
GW 275 1 5.070790366291444 -7.364935515320116 0 6.696428571428571 -9.375 0 0.05
GW 276 1 6.696428571428571 -9.375 0 4.017857142858729 -9.375 0 0.05
GW 277 1 5.070790366291444 -7.364935515320116 0 4.017857142858729 -9.375 0 0.05
GW 278 1 -3.086993814918736 6.844748159019945 0 -3.318106139849093 4.089524938451827 0 0.05
GW 279 1 -3.318106139849093 4.089524938451827 0 -5.051671194577829 5.621776665969451 0 0.05
GW 280 1 -3.086993814918736 6.844748159019945 0 -5.051671194577829 5.621776665969451 0 0.05
GW 281 1 6.689580159414997 5.10634656419997 0 9.375 6.696428571428571 0 0.05
GW 282 1 9.375 6.696428571428571 0 9.375 4.017857142858729 0 0.05
GW 283 1 6.689580159414997 5.10634656419997 0 9.375 4.017857142858729 0 0.05
GW 284 1 -7.025381012372589 -5.201448794742288 0 -9.375 -6.696428571428571 0 0.05
GW 285 1 -9.375 -6.696428571428571 0 -9.375 -4.017857142858729 0 0.05
GW 286 1 -7.025381012372589 -5.201448794742288 0 -9.375 -4.017857142858729 0 0.05
GW 287 1 4.076508745742529 6.059929662954254 0 1.669158199314807 6.723974746187205 0 0.05
GW 288 1 1.669158199314807 6.723974746187205 0 4.01785714284604 9.375 0 0.05
GW 289 1 4.076508745742529 6.059929662954254 0 4.01785714284604 9.375 0 0.05
GW 290 1 0.4377855422001767 2.586535883288115 0 -0.5802204548059274 4.784621367905854 0 0.05
GW 291 1 -0.5802204548059274 4.784621367905854 0 2.105648375805295 4.129671922143112 0 0.05
GW 292 1 0.4377855422001767 2.586535883288115 0 2.105648375805295 4.129671922143112 0 0.05
GW 293 1 2.105648375805295 4.129671922143112 0 -0.5802204548059274 4.784621367905854 0 0.05
GW 294 1 -0.5802204548059274 4.784621367905854 0 1.669158199314807 6.723974746187205 0 0.05
GW 295 1 2.105648375805295 4.129671922143112 0 1.669158199314807 6.723974746187205 0 0.05
GW 296 1 4.076508745742529 6.059929662954254 0 2.105648375805295 4.129671922143112 0 0.05
GW 297 1 2.105648375805295 4.129671922143112 0 1.669158199314807 6.723974746187205 0 0.05
GW 298 1 4.076508745742529 6.059929662954254 0 1.669158199314807 6.723974746187205 0 0.05
GW 299 1 -0.338630110356612 -2.735015319983185 0 0.6338814896681605 -4.653060104590379 0 0.05
GW 300 1 0.6338814896681605 -4.653060104590379 0 -1.859813274983875 -4.097556872864168 0 0.05
GW 301 1 -0.338630110356612 -2.735015319983185 0 -1.859813274983875 -4.097556872864168 0 0.05
GW 302 1 -1.859813274983875 -4.097556872864168 0 0.6338814896681605 -4.653060104590379 0 0.05
GW 303 1 0.6338814896681605 -4.653060104590379 0 -0.804536687442 -7.056579277445207 0 0.05
GW 304 1 -1.859813274983875 -4.097556872864168 0 -0.804536687442 -7.056579277445207 0 0.05
GW 305 1 -4.302571336824886 -6.755567895399417 0 -1.859813274983875 -4.097556872864168 0 0.05
GW 306 1 -1.859813274983875 -4.097556872864168 0 -0.804536687442 -7.056579277445207 0 0.05
GW 307 1 -4.302571336824886 -6.755567895399417 0 -0.804536687442 -7.056579277445207 0 0.05
GW 308 1 -4.031556072197924 1.818807848884627 0 -6.011693100500072 3.877239974862947 0 0.05
GW 309 1 -6.011693100500072 3.877239974862947 0 -3.318106139849093 4.089524938451827 0 0.05
GW 310 1 -4.031556072197924 1.818807848884627 0 -3.318106139849093 4.089524938451827 0 0.05
GW 311 1 -6.011693100500072 3.877239974862947 0 -5.051671194577829 5.621776665969451 0 0.05
GW 312 1 -5.051671194577829 5.621776665969451 0 -3.318106139849093 4.089524938451827 0 0.05
GW 313 1 -6.011693100500072 3.877239974862947 0 -3.318106139849093 4.089524938451827 0 0.05
GW 314 1 -6.696428571428571 9.375 0 -7.754970731278189 7.817519156826236 0 0.05
GW 315 1 -7.754970731278189 7.817519156826236 0 -9.375 9.375 0 0.05
GW 316 1 -6.696428571428571 9.375 0 -9.375 9.375 0 0.05
GW 317 1 -7.754970731278189 7.817519156826236 0 -9.375 6.696428571422228 0 0.05
GW 318 1 -9.375 6.696428571422228 0 -9.375 9.375 0 0.05
GW 319 1 -7.754970731278189 7.817519156826236 0 -9.375 9.375 0 0.05
GW 320 1 -7.754970731278189 7.817519156826236 0 -6.696428571428571 9.375 0 0.05
GW 321 1 -6.696428571428571 9.375 0 -5.745298584922932 7.556200903344209 0 0.05
GW 322 1 -7.754970731278189 7.817519156826236 0 -5.745298584922932 7.556200903344209 0 0.05
GW 323 1 6.696428571428571 -9.375 0 7.495951392596266 -7.712977852854341 0 0.05
GW 324 1 7.495951392596266 -7.712977852854341 0 9.375 -9.375 0 0.05
GW 325 1 6.696428571428571 -9.375 0 9.375 -9.375 0 0.05
GW 326 1 9.375 -6.696428571422228 0 7.495951392596266 -7.712977852854341 0 0.05
GW 327 1 7.495951392596266 -7.712977852854341 0 6.962538025261316 -5.753525177529361 0 0.05
GW 328 1 9.375 -6.696428571422228 0 6.962538025261316 -5.753525177529361 0 0.05
GW 329 1 7.495951392596266 -7.712977852854341 0 9.375 -6.696428571422228 0 0.05
GW 330 1 9.375 -6.696428571422228 0 9.375 -9.375 0 0.05
GW 331 1 7.495951392596266 -7.712977852854341 0 9.375 -9.375 0 0.05
GW 332 1 -5.051671194577829 5.621776665969451 0 -7.21893893521317 5.931170402545185 0 0.05
GW 333 1 -7.21893893521317 5.931170402545185 0 -5.745298584922932 7.556200903344209 0 0.05
GW 334 1 -5.051671194577829 5.621776665969451 0 -5.745298584922932 7.556200903344209 0 0.05
GW 335 1 5.070790366291444 -7.364935515320116 0 7.495951392596266 -7.712977852854341 0 0.05
GW 336 1 7.495951392596266 -7.712977852854341 0 6.696428571428571 -9.375 0 0.05
GW 337 1 5.070790366291444 -7.364935515320116 0 6.696428571428571 -9.375 0 0.05
GW 338 1 5.070790366291444 -7.364935515320116 0 6.962538025261316 -5.753525177529361 0 0.05
GW 339 1 6.962538025261316 -5.753525177529361 0 7.495951392596266 -7.712977852854341 0 0.05
GW 340 1 5.070790366291444 -7.364935515320116 0 7.495951392596266 -7.712977852854341 0 0.05
GW 341 1 -7.754970731278189 7.817519156826236 0 -7.21893893521317 5.931170402545185 0 0.05
GW 342 1 -7.21893893521317 5.931170402545185 0 -9.375 6.696428571422228 0 0.05
GW 343 1 -7.754970731278189 7.817519156826236 0 -9.375 6.696428571422228 0 0.05
GW 344 1 -7.754970731278189 7.817519156826236 0 -5.745298584922932 7.556200903344209 0 0.05
GW 345 1 -5.745298584922932 7.556200903344209 0 -7.21893893521317 5.931170402545185 0 0.05
GW 346 1 -7.754970731278189 7.817519156826236 0 -7.21893893521317 5.931170402545185 0 0.05
GW 347 1 -6.710698696336139 1.630506943660993 0 -6.011693100500072 3.877239974862947 0 0.05
GW 348 1 -6.011693100500072 3.877239974862947 0 -4.031556072197924 1.818807848884627 0 0.05
GW 349 1 -6.710698696336139 1.630506943660993 0 -4.031556072197924 1.818807848884627 0 0.05
GW 350 1 -6.011693100500072 3.877239974862947 0 -6.710698696336139 1.630506943660993 0 0.05
GW 351 1 -6.710698696336139 1.630506943660993 0 -9.375 4.01785714284604 0 0.05
GW 352 1 -6.011693100500072 3.877239974862947 0 -9.375 4.01785714284604 0 0.05
GW 353 1 -5.745298584922932 7.556200903344209 0 -4.017857142858729 9.375 0 0.05
GW 354 1 -4.017857142858729 9.375 0 -3.086993814918736 6.844748159019945 0 0.05
GW 355 1 -5.745298584922932 7.556200903344209 0 -3.086993814918736 6.844748159019945 0 0.05
GW 356 1 -4.017857142858729 9.375 0 -5.745298584922932 7.556200903344209 0 0.05
GW 357 1 -5.745298584922932 7.556200903344209 0 -6.696428571428571 9.375 0 0.05
GW 358 1 -4.017857142858729 9.375 0 -6.696428571428571 9.375 0 0.05
GW 359 1 -5.051671194577829 5.621776665969451 0 -5.745298584922932 7.556200903344209 0 0.05
GW 360 1 -5.745298584922932 7.556200903344209 0 -3.086993814918736 6.844748159019945 0 0.05
GW 361 1 -5.051671194577829 5.621776665969451 0 -3.086993814918736 6.844748159019945 0 0.05
GW 362 1 -7.21893893521317 5.931170402545185 0 -9.375 4.01785714284604 0 0.05
GW 363 1 -9.375 4.01785714284604 0 -9.375 6.696428571422228 0 0.05