CM Length L in mtr. = .644
CM Radius R1 in cm. = 2.275
CM Radius R2 in cm. = 2.275
CM Number of turns = 20
CM Segments per turn = 20
CM Rotate X, Y, Z = 0, 0, 0
CM Move X, Y, Z = 0, 0, 0
CM Start angle A1 = 0
CM Stop angle A2 = 360
CM Nr radial wires = 18
CM Nr circular wires = 10
CM Rotate X, Y, Z = 0, 0, 0
CM Move X, Y, Z = 0, 0, 0
CE
GW 10 1 -.018405 .013372 .01288 -.021637 .00703 .01449 1.e-3
GW 11 1 -.021637 .00703 .01449 -.02275 .0 .0161 1.e-3
GW 12 1 -.02275 .0 .0161 -.021637 -.00703 .01771 1.e-3
GW 13 1 -.021637 -.00703 .01771 -.018405 -.013372 .01932 1.e-3
GW 14 1 -.018405 -.013372 .01932 -.013372 -.018405 .02093 1.e-3
GW 15 1 -.013372 -.018405 .02093 -.00703 -.021637 .02254 1.e-3
GW 16 1 -.00703 -.021637 .02254 .0 -.02275 .02415 1.e-3
GW 17 1 .0 -.02275 .02415 .00703 -.021637 .02576 1.e-3
GW 18 1 .00703 -.021637 .02576 .013372 -.018405 .02737 1.e-3
GW 19 1 .013372 -.018405 .02737 .018405 -.013372 .02898 1.e-3
GW 20 1 .018405 -.013372 .02898 .021637 -.00703 .03059 1.e-3
GW 21 1 .021637 -.00703 .03059 .02275 .0 .0322 1.e-3
GW 22 1 .02275 .0 .0322 .021637 .00703 .03381 1.e-3
GW 23 1 .021637 .00703 .03381 .018405 .013372 .03542 1.e-3
GW 24 1 .018405 .013372 .03542 .013372 .018405 .03703 1.e-3
GW 25 1 .013372 .018405 .03703 .00703 .021637 .03864 1.e-3
GW 26 1 .00703 .021637 .03864 .0 .02275 .04025 1.e-3
GW 27 1 .0 .02275 .04025 -.00703 .021637 .04186 1.e-3
GW 28 1 -.00703 .021637 .04186 -.013372 .018405 .04347 1.e-3
GW 29 1 -.013372 .018405 .04347 -.018405 .013372 .04508 1.e-3
GW 30 1 -.018405 .013372 .04508 -.021637 .00703 .04669 1.e-3
GW 31 1 -.021637 .00703 .04669 -.02275 .0 .0483 1.e-3
GW 32 1 -.02275 .0 .0483 -.021637 -.00703 .04991 1.e-3
GW 33 1 -.021637 -.00703 .04991 -.018405 -.013372 .05152 1.e-3
GW 34 1 -.018405 -.013372 .05152 -.013372 -.018405 .05313 1.e-3
GW 35 1 -.013372 -.018405 .05313 -.00703 -.021637 .05474 1.e-3
GW 36 1 -.00703 -.021637 .05474 .0 -.02275 .05635 1.e-3
GW 37 1 .0 -.02275 .05635 .00703 -.021637 .05796 1.e-3
GW 38 1 .00703 -.021637 .05796 .013372 -.018405 .05957 1.e-3
GW 39 1 .013372 -.018405 .05957 .018405 -.013372 .06118 1.e-3
GW 40 1 .018405 -.013372 .06118 .021637 -.00703 .06279 1.e-3
GW 41 1 .021637 -.00703 .06279 .02275 .0 .0644 1.e-3
GW 42 1 .02275 .0 .0644 .021637 .00703 .06601 1.e-3
GW 43 1 .021637 .00703 .06601 .018405 .013372 .06762 1.e-3
GW 44 1 .018405 .013372 .06762 .013372 .018405 .06923 1.e-3
GW 45 1 .013372 .018405 .06923 .00703 .021637 .07084 1.e-3
GW 46 1 .00703 .021637 .07084 .0 .02275 .07245 1.e-3
GW 47 1 .0 .02275 .07245 -.00703 .021637 .07406 1.e-3
GW 48 1 -.00703 .021637 .07406 -.013372 .018405 .07567 1.e-3
GW 49 1 -.013372 .018405 .07567 -.018405 .013372 .07728 1.e-3
GW 50 1 -.018405 .013372 .07728 -.021637 .00703 .07889 1.e-3
GW 51 1 -.021637 .00703 .07889 -.02275 .0 .0805 1.e-3
GW 52 1 -.02275 .0 .0805 -.021637 -.00703 .08211 1.e-3
GW 53 1 -.021637 -.00703 .08211 -.018405 -.013372 .08372 1.e-3
GW 54 1 -.018405 -.013372 .08372 -.013372 -.018405 .08533 1.e-3
GW 55 1 -.013372 -.018405 .08533 -.00703 -.021637 .08694 1.e-3
GW 56 1 -.00703 -.021637 .08694 .0 -.02275 .08855 1.e-3
GW 57 1 .0 -.02275 .08855 .00703 -.021637 .09016 1.e-3
GW 58 1 .00703 -.021637 .09016 .013372 -.018405 .09177 1.e-3
GW 59 1 .013372 -.018405 .09177 .018405 -.013372 .09338 1.e-3
GW 60 1 .018405 -.013372 .09338 .021637 -.00703 .09499 1.e-3
GW 61 1 .021637 -.00703 .09499 .02275 .0 .0966 1.e-3
GW 62 1 .02275 .0 .0966 .021637 .00703 .09821 1.e-3
GW 63 1 .021637 .00703 .09821 .018405 .013372 .09982 1.e-3
GW 64 1 .018405 .013372 .09982 .013372 .018405 .10143 1.e-3
GW 65 1 .013372 .018405 .10143 .00703 .021637 .10304 1.e-3
GW 66 1 .00703 .021637 .10304 .0 .02275 .10465 1.e-3
GW 67 1 .0 .02275 .10465 -.00703 .021637 .10626 1.e-3
GW 68 1 -.00703 .021637 .10626 -.013372 .018405 .10787 1.e-3
GW 69 1 -.013372 .018405 .10787 -.018405 .013372 .10948 1.e-3
GW 70 1 -.018405 .013372 .10948 -.021637 .00703 .11109 1.e-3
GW 71 1 -.021637 .00703 .11109 -.02275 .0 .1127 1.e-3
GW 72 1 -.02275 .0 .1127 -.021637 -.00703 .11431 1.e-3
GW 73 1 -.021637 -.00703 .11431 -.018405 -.013372 .11592 1.e-3
GW 74 1 -.018405 -.013372 .11592 -.013372 -.018405 .11753 1.e-3
GW 75 1 -.013372 -.018405 .11753 -.00703 -.021637 .11914 1.e-3
GW 76 1 -.00703 -.021637 .11914 .0 -.02275 .12075 1.e-3
GW 77 1 .0 -.02275 .12075 .00703 -.021637 .12236 1.e-3
GW 78 1 .00703 -.021637 .12236 .013372 -.018405 .12397 1.e-3
GW 79 1 .013372 -.018405 .12397 .018405 -.013372 .12558 1.e-3
GW 80 1 .018405 -.013372 .12558 .021637 -.00703 .12719 1.e-3
GW 81 1 .021637 -.00703 .12719 .02275 .0 .1288 1.e-3
GW 82 1 .02275 .0 .1288 .021637 .00703 .13041 1.e-3
GW 83 1 .021637 .00703 .13041 .018405 .013372 .13202 1.e-3
GW 84 1 .018405 .013372 .13202 .013372 .018405 .13363 1.e-3
GW 85 1 .013372 .018405 .13363 .00703 .021637 .13524 1.e-3
GW 86 1 .00703 .021637 .13524 .0 .02275 .13685 1.e-3
GW 87 1 .0 .02275 .13685 -.00703 .021637 .13846 1.e-3
GW 88 1 -.00703 .021637 .13846 -.013372 .018405 .14007 1.e-3
GW 89 1 -.013372 .018405 .14007 -.018405 .013372 .14168 1.e-3
GW 90 1 -.018405 .013372 .14168 -.021637 .00703 .14329 1.e-3
GW 91 1 -.021637 .00703 .14329 -.02275 .0 .1449 1.e-3
GW 92 1 -.02275 .0 .1449 -.021637 -.00703 .14651 1.e-3
GW 93 1 -.021637 -.00703 .14651 -.018405 -.013372 .14812 1.e-3
GW 94 1 -.018405 -.013372 .14812 -.013372 -.018405 .14973 1.e-3
GW 95 1 -.013372 -.018405 .14973 -.00703 -.021637 .15134 1.e-3
GW 96 1 -.00703 -.021637 .15134 .0 -.02275 .15295 1.e-3
GW 97 1 .0 -.02275 .15295 .00703 -.021637 .15456 1.e-3
GW 98 1 .00703 -.021637 .15456 .013372 -.018405 .15617 1.e-3
GW 99 1 .013372 -.018405 .15617 .018405 -.013372 .15778 1.e-3
GW 100 1 .018405 -.013372 .15778 .021637 -.00703 .15939 1.e-3
GW 101 1 .021637 -.00703 .15939 .02275 .0 .161 1.e-3
GW 102 1 .02275 .0 .161 .021637 .00703 .16261 1.e-3
GW 103 1 .021637 .00703 .16261 .018405 .013372 .16422 1.e-3
GW 104 1 .018405 .013372 .16422 .013372 .018405 .16583 1.e-3
GW 105 1 .013372 .018405 .16583 .00703 .021637 .16744 1.e-3
GW 106 1 .00703 .021637 .16744 .0 .02275 .16905 1.e-3
GW 107 1 .0 .02275 .16905 -.00703 .021637 .17066 1.e-3
GW 108 1 -.00703 .021637 .17066 -.013372 .018405 .17227 1.e-3
GW 109 1 -.013372 .018405 .17227 -.018405 .013372 .17388 1.e-3
GW 110 1 -.018405 .013372 .17388 -.021637 .00703 .17549 1.e-3
GW 111 1 -.021637 .00703 .17549 -.02275 .0 .1771 1.e-3
GW 112 1 -.02275 .0 .1771 -.021637 -.00703 .17871 1.e-3
GW 113 1 -.021637 -.00703 .17871 -.018405 -.013372 .18032 1.e-3
GW 114 1 -.018405 -.013372 .18032 -.013372 -.018405 .18193 1.e-3
GW 115 1 -.013372 -.018405 .18193 -.00703 -.021637 .18354 1.e-3
GW 116 1 -.00703 -.021637 .18354 .0 -.02275 .18515 1.e-3
GW 117 1 .0 -.02275 .18515 .00703 -.021637 .18676 1.e-3
GW 118 1 .00703 -.021637 .18676 .013372 -.018405 .18837 1.e-3
GW 119 1 .013372 -.018405 .18837 .018405 -.013372 .18998 1.e-3
GW 120 1 .018405 -.013372 .18998 .021637 -.00703 .19159 1.e-3
GW 121 1 .021637 -.00703 .19159 .02275 .0 .1932 1.e-3
GW 122 1 .02275 .0 .1932 .021637 .00703 .19481 1.e-3
GW 123 1 .021637 .00703 .19481 .018405 .013372 .19642 1.e-3
GW 124 1 .018405 .013372 .19642 .013372 .018405 .19803 1.e-3
GW 125 1 .013372 .018405 .19803 .00703 .021637 .19964 1.e-3
GW 126 1 .00703 .021637 .19964 .0 .02275 .20125 1.e-3
GW 127 1 .0 .02275 .20125 -.00703 .021637 .20286 1.e-3
GW 128 1 -.00703 .021637 .20286 -.013372 .018405 .20447 1.e-3
GW 129 1 -.013372 .018405 .20447 -.018405 .013372 .20608 1.e-3
GW 130 1 -.018405 .013372 .20608 -.021637 .00703 .20769 1.e-3
GW 131 1 -.021637 .00703 .20769 -.02275 .0 .2093 1.e-3
GW 132 1 -.02275 .0 .2093 -.021637 -.00703 .21091 1.e-3
GW 133 1 -.021637 -.00703 .21091 -.018405 -.013372 .21252 1.e-3
GW 134 1 -.018405 -.013372 .21252 -.013372 -.018405 .21413 1.e-3
GW 135 1 -.013372 -.018405 .21413 -.00703 -.021637 .21574 1.e-3
GW 136 1 -.00703 -.021637 .21574 .0 -.02275 .21735 1.e-3
GW 137 1 .0 -.02275 .21735 .00703 -.021637 .21896 1.e-3
GW 138 1 .00703 -.021637 .21896 .013372 -.018405 .22057 1.e-3
GW 139 1 .013372 -.018405 .22057 .018405 -.013372 .22218 1.e-3
GW 140 1 .018405 -.013372 .22218 .021637 -.00703 .22379 1.e-3
GW 141 1 .021637 -.00703 .22379 .02275 .0 .2254 1.e-3
GW 142 1 .02275 .0 .2254 .021637 .00703 .22701 1.e-3
GW 143 1 .021637 .00703 .22701 .018405 .013372 .22862 1.e-3
GW 144 1 .018405 .013372 .22862 .013372 .018405 .23023 1.e-3
GW 145 1 .013372 .018405 .23023 .00703 .021637 .23184 1.e-3
GW 146 1 .00703 .021637 .23184 .0 .02275 .23345 1.e-3
GW 147 1 .0 .02275 .23345 -.00703 .021637 .23506 1.e-3
GW 148 1 -.00703 .021637 .23506 -.013372 .018405 .23667 1.e-3
GW 149 1 -.013372 .018405 .23667 -.018405 .013372 .23828 1.e-3
GW 150 1 -.018405 .013372 .23828 -.021637 .00703 .23989 1.e-3
GW 151 1 -.021637 .00703 .23989 -.02275 .0 .2415 1.e-3
GW 152 1 -.02275 .0 .2415 -.021637 -.00703 .24311 1.e-3
GW 153 1 -.021637 -.00703 .24311 -.018405 -.013372 .24472 1.e-3
GW 154 1 -.018405 -.013372 .24472 -.013372 -.018405 .24633 1.e-3
GW 155 1 -.013372 -.018405 .24633 -.00703 -.021637 .24794 1.e-3
GW 156 1 -.00703 -.021637 .24794 .0 -.02275 .24955 1.e-3
GW 157 1 .0 -.02275 .24955 .00703 -.021637 .25116 1.e-3
GW 158 1 .00703 -.021637 .25116 .013372 -.018405 .25277 1.e-3
GW 159 1 .013372 -.018405 .25277 .018405 -.013372 .25438 1.e-3
GW 160 1 .018405 -.013372 .25438 .021637 -.00703 .25599 1.e-3
GW 161 1 .021637 -.00703 .25599 .02275 .0 .2576 1.e-3
GW 162 1 .02275 .0 .2576 .021637 .00703 .25921 1.e-3
GW 163 1 .021637 .00703 .25921 .018405 .013372 .26082 1.e-3
GW 164 1 .018405 .013372 .26082 .013372 .018405 .26243 1.e-3
GW 165 1 .013372 .018405 .26243 .00703 .021637 .26404 1.e-3
GW 166 1 .00703 .021637 .26404 .0 .02275 .26565 1.e-3
GW 167 1 .0 .02275 .26565 -.00703 .021637 .26726 1.e-3
GW 168 1 -.00703 .021637 .26726 -.013372 .018405 .26887 1.e-3
GW 169 1 -.013372 .018405 .26887 -.018405 .013372 .27048 1.e-3
GW 170 1 -.018405 .013372 .27048 -.021637 .00703 .27209 1.e-3
GW 171 1 -.021637 .00703 .27209 -.02275 .0 .2737 1.e-3
GW 172 1 -.02275 .0 .2737 -.021637 -.00703 .27531 1.e-3
GW 173 1 -.021637 -.00703 .27531 -.018405 -.013372 .27692 1.e-3
GW 174 1 -.018405 -.013372 .27692 -.013372 -.018405 .27853 1.e-3
GW 175 1 -.013372 -.018405 .27853 -.00703 -.021637 .28014 1.e-3
GW 176 1 -.00703 -.021637 .28014 .0 -.02275 .28175 1.e-3
GW 177 1 .0 -.02275 .28175 .00703 -.021637 .28336 1.e-3
GW 178 1 .00703 -.021637 .28336 .013372 -.018405 .28497 1.e-3
GW 179 1 .013372 -.018405 .28497 .018405 -.013372 .28658 1.e-3
GW 180 1 .018405 -.013372 .28658 .021637 -.00703 .28819 1.e-3
GW 181 1 .021637 -.00703 .28819 .02275 .0 .2898 1.e-3
GW 182 1 .02275 .0 .2898 .021637 .00703 .29141 1.e-3
GW 183 1 .021637 .00703 .29141 .018405 .013372 .29302 1.e-3
GW 184 1 .018405 .013372 .29302 .013372 .018405 .29463 1.e-3
GW 185 1 .013372 .018405 .29463 .00703 .021637 .29624 1.e-3
GW 186 1 .00703 .021637 .29624 .0 .02275 .29785 1.e-3
GW 187 1 .0 .02275 .29785 -.00703 .021637 .29946 1.e-3
GW 188 1 -.00703 .021637 .29946 -.013372 .018405 .30107 1.e-3
GW 189 1 -.013372 .018405 .30107 -.018405 .013372 .30268 1.e-3
GW 190 1 -.018405 .013372 .30268 -.021637 .00703 .30429 1.e-3
GW 191 1 -.021637 .00703 .30429 -.02275 .0 .3059 1.e-3
GW 192 1 -.02275 .0 .3059 -.021637 -.00703 .30751 1.e-3
GW 193 1 -.021637 -.00703 .30751 -.018405 -.013372 .30912 1.e-3
GW 194 1 -.018405 -.013372 .30912 -.013372 -.018405 .31073 1.e-3
GW 195 1 -.013372 -.018405 .31073 -.00703 -.021637 .31234 1.e-3
GW 196 1 -.00703 -.021637 .31234 .0 -.02275 .31395 1.e-3
GW 197 1 .0 -.02275 .31395 .00703 -.021637 .31556 1.e-3
GW 198 1 .00703 -.021637 .31556 .013372 -.018405 .31717 1.e-3
GW 199 1 .013372 -.018405 .31717 .018405 -.013372 .31878 1.e-3
GW 200 1 .018405 -.013372 .31878 .021637 -.00703 .32039 1.e-3
GW 201 1 .021637 -.00703 .32039 .02275 .0 .322 1.e-3
GW 202 1 .02275 .0 .322 .021637 .00703 .32361 1.e-3
GW 203 1 .021637 .00703 .32361 .018405 .013372 .32522 1.e-3
GW 204 1 .018405 .013372 .32522 .013372 .018405 .32683 1.e-3
GW 205 1 .013372 .018405 .32683 .00703 .021637 .32844 1.e-3
GW 206 1 .00703 .021637 .32844 .0 .02275 .33005 1.e-3
GW 207 1 .0 .02275 .33005 -.00703 .021637 .33166 1.e-3
GW 208 1 -.00703 .021637 .33166 -.013372 .018405 .33327 1.e-3
GW 209 1 -.013372 .018405 .33327 -.018405 .013372 .33488 1.e-3
GW 210 1 -.018405 .013372 .33488 -.021637 .00703 .33649 1.e-3
GW 211 1 -.021637 .00703 .33649 -.02275 .0 .3381 1.e-3
GW 212 1 -.02275 .0 .3381 -.021637 -.00703 .33971 1.e-3
GW 213 1 -.021637 -.00703 .33971 -.018405 -.013372 .34132 1.e-3
GW 214 1 -.018405 -.013372 .34132 -.013372 -.018405 .34293 1.e-3
GW 215 1 -.013372 -.018405 .34293 -.00703 -.021637 .34454 1.e-3
GW 216 1 -.00703 -.021637 .34454 .0 -.02275 .34615 1.e-3
GW 217 1 .0 -.02275 .34615 .00703 -.021637 .34776 1.e-3
GW 218 1 .00703 -.021637 .34776 .013372 -.018405 .34937 1.e-3
GW 219 1 .013372 -.018405 .34937 .018405 -.013372 .35098 1.e-3
GW 220 1 .018405 -.013372 .35098 .021637 -.00703 .35259 1.e-3
GW 221 1 .021637 -.00703 .35259 .02275 .0 .3542 1.e-3
GW 222 1 .02275 .0 .3542 .021637 .00703 .35581 1.e-3
GW 223 1 .021637 .00703 .35581 .018405 .013372 .35742 1.e-3
GW 224 1 .018405 .013372 .35742 .013372 .018405 .35903 1.e-3
GW 225 1 .013372 .018405 .35903 .00703 .021637 .36064 1.e-3
GW 226 1 .00703 .021637 .36064 .0 .02275 .36225 1.e-3
GW 227 1 .0 .02275 .36225 -.00703 .021637 .36386 1.e-3
GW 228 1 -.00703 .021637 .36386 -.013372 .018405 .36547 1.e-3
GW 229 1 -.013372 .018405 .36547 -.018405 .013372 .36708 1.e-3
GW 230 1 -.018405 .013372 .36708 -.021637 .00703 .36869 1.e-3
GW 231 1 -.021637 .00703 .36869 -.02275 .0 .3703 1.e-3
GW 232 1 -.02275 .0 .3703 -.021637 -.00703 .37191 1.e-3
GW 233 1 -.021637 -.00703 .37191 -.018405 -.013372 .37352 1.e-3
GW 234 1 -.018405 -.013372 .37352 -.013372 -.018405 .37513 1.e-3
GW 235 1 -.013372 -.018405 .37513 -.00703 -.021637 .37674 1.e-3
GW 236 1 -.00703 -.021637 .37674 .0 -.02275 .37835 1.e-3
GW 237 1 .0 -.02275 .37835 .00703 -.021637 .37996 1.e-3
GW 238 1 .00703 -.021637 .37996 .013372 -.018405 .38157 1.e-3
GW 239 1 .013372 -.018405 .38157 .018405 -.013372 .38318 1.e-3
GW 240 1 .018405 -.013372 .38318 .021637 -.00703 .38479 1.e-3
GW 241 1 .021637 -.00703 .38479 .02275 .0 .3864 1.e-3
GW 242 1 .02275 .0 .3864 .021637 .00703 .38801 1.e-3
GW 243 1 .021637 .00703 .38801 .018405 .013372 .38962 1.e-3
GW 244 1 .018405 .013372 .38962 .013372 .018405 .39123 1.e-3
GW 245 1 .013372 .018405 .39123 .00703 .021637 .39284 1.e-3
GW 246 1 .00703 .021637 .39284 .0 .02275 .39445 1.e-3
GW 247 1 .0 .02275 .39445 -.00703 .021637 .39606 1.e-3
GW 248 1 -.00703 .021637 .39606 -.013372 .018405 .39767 1.e-3
GW 249 1 -.013372 .018405 .39767 -.018405 .013372 .39928 1.e-3
GW 250 1 -.018405 .013372 .39928 -.021637 .00703 .40089 1.e-3
GW 251 1 -.021637 .00703 .40089 -.02275 .0 .4025 1.e-3
GW 252 1 -.02275 .0 .4025 -.021637 -.00703 .40411 1.e-3
GW 253 1 -.021637 -.00703 .40411 -.018405 -.013372 .40572 1.e-3
GW 254 1 -.018405 -.013372 .40572 -.013372 -.018405 .40733 1.e-3
GW 255 1 -.013372 -.018405 .40733 -.00703 -.021637 .40894 1.e-3
GW 256 1 -.00703 -.021637 .40894 .0 -.02275 .41055 1.e-3
GW 257 1 .0 -.02275 .41055 .00703 -.021637 .41216 1.e-3
GW 258 1 .00703 -.021637 .41216 .013372 -.018405 .41377 1.e-3
GW 259 1 .013372 -.018405 .41377 .018405 -.013372 .41538 1.e-3
GW 260 1 .018405 -.013372 .41538 .021637 -.00703 .41699 1.e-3
GW 261 1 .021637 -.00703 .41699 .02275 .0 .4186 1.e-3
GW 262 1 .02275 .0 .4186 .021637 .00703 .42021 1.e-3
GW 263 1 .021637 .00703 .42021 .018405 .013372 .42182 1.e-3
GW 264 1 .018405 .013372 .42182 .013372 .018405 .42343 1.e-3
GW 265 1 .013372 .018405 .42343 .00703 .021637 .42504 1.e-3
GW 266 1 .00703 .021637 .42504 .0 .02275 .42665 1.e-3
GW 267 1 .0 .02275 .42665 -.00703 .021637 .42826 1.e-3
GW 268 1 -.00703 .021637 .42826 -.013372 .018405 .42987 1.e-3
GW 269 1 -.013372 .018405 .42987 -.018405 .013372 .43148 1.e-3
GW 270 1 -.018405 .013372 .43148 -.021637 .00703 .43309 1.e-3
GW 271 1 -.021637 .00703 .43309 -.02275 .0 .4347 1.e-3
GW 272 1 -.02275 .0 .4347 -.021637 -.00703 .43631 1.e-3
GW 273 1 -.021637 -.00703 .43631 -.018405 -.013372 .43792 1.e-3
GW 274 1 -.018405 -.013372 .43792 -.013372 -.018405 .43953 1.e-3
GW 275 1 -.013372 -.018405 .43953 -.00703 -.021637 .44114 1.e-3
GW 276 1 -.00703 -.021637 .44114 .0 -.02275 .44275 1.e-3
GW 277 1 .0 -.02275 .44275 .00703 -.021637 .44436 1.e-3
GW 278 1 .00703 -.021637 .44436 .013372 -.018405 .44597 1.e-3
GW 279 1 .013372 -.018405 .44597 .018405 -.013372 .44758 1.e-3
GW 280 1 .018405 -.013372 .44758 .021637 -.00703 .44919 1.e-3
GW 281 1 .021637 -.00703 .44919 .02275 .0 .4508 1.e-3
GW 282 1 .02275 .0 .4508 .021637 .00703 .45241 1.e-3
GW 283 1 .021637 .00703 .45241 .018405 .013372 .45402 1.e-3
GW 284 1 .018405 .013372 .45402 .013372 .018405 .45563 1.e-3
GW 285 1 .013372 .018405 .45563 .00703 .021637 .45724 1.e-3
GW 286 1 .00703 .021637 .45724 .0 .02275 .45885 1.e-3
GW 287 1 .0 .02275 .45885 -.00703 .021637 .46046 1.e-3
GW 288 1 -.00703 .021637 .46046 -.013372 .018405 .46207 1.e-3
GW 289 1 -.013372 .018405 .46207 -.018405 .013372 .46368 1.e-3
GW 290 1 -.018405 .013372 .46368 -.021637 .00703 .46529 1.e-3
GW 291 1 -.021637 .00703 .46529 -.02275 .0 .4669 1.e-3
GW 292 1 -.02275 .0 .4669 -.021637 -.00703 .46851 1.e-3
GW 293 1 -.021637 -.00703 .46851 -.018405 -.013372 .47012 1.e-3
GW 294 1 -.018405 -.013372 .47012 -.013372 -.018405 .47173 1.e-3
GW 295 1 -.013372 -.018405 .47173 -.00703 -.021637 .47334 1.e-3
GW 296 1 -.00703 -.021637 .47334 .0 -.02275 .47495 1.e-3
GW 297 1 .0 -.02275 .47495 .00703 -.021637 .47656 1.e-3
GW 298 1 .00703 -.021637 .47656 .013372 -.018405 .47817 1.e-3
GW 299 1 .013372 -.018405 .47817 .018405 -.013372 .47978 1.e-3
GW 300 1 .018405 -.013372 .47978 .021637 -.00703 .48139 1.e-3
GW 301 1 .021637 -.00703 .48139 .02275 .0 .483 1.e-3
GW 302 1 .02275 .0 .483 .021637 .00703 .48461 1.e-3
GW 303 1 .021637 .00703 .48461 .018405 .013372 .48622 1.e-3
GW 304 1 .018405 .013372 .48622 .013372 .018405 .48783 1.e-3
GW 305 1 .013372 .018405 .48783 .00703 .021637 .48944 1.e-3
GW 306 1 .00703 .021637 .48944 .0 .02275 .49105 1.e-3
GW 307 1 .0 .02275 .49105 -.00703 .021637 .49266 1.e-3
GW 308 1 -.00703 .021637 .49266 -.013372 .018405 .49427 1.e-3
GW 309 1 -.013372 .018405 .49427 -.018405 .013372 .49588 1.e-3
GW 310 1 -.018405 .013372 .49588 -.021637 .00703 .49749 1.e-3
GW 311 1 -.021637 .00703 .49749 -.02275 .0 .4991 1.e-3
GW 312 1 -.02275 .0 .4991 -.021637 -.00703 .50071 1.e-3
GW 313 1 -.021637 -.00703 .50071 -.018405 -.013372 .50232 1.e-3
GW 314 1 -.018405 -.013372 .50232 -.013372 -.018405 .50393 1.e-3
GW 315 1 -.013372 -.018405 .50393 -.00703 -.021637 .50554 1.e-3
GW 316 1 -.00703 -.021637 .50554 .0 -.02275 .50715 1.e-3
GW 317 1 .0 -.02275 .50715 .00703 -.021637 .50876 1.e-3
GW 318 1 .00703 -.021637 .50876 .013372 -.018405 .51037 1.e-3
GW 319 1 .013372 -.018405 .51037 .018405 -.013372 .51198 1.e-3
GW 320 1 .018405 -.013372 .51198 .021637 -.00703 .51359 1.e-3
GW 321 1 .021637 -.00703 .51359 .02275 .0 .5152 1.e-3
GW 322 1 .02275 .0 .5152 .021637 .00703 .51681 1.e-3
GW 323 1 .021637 .00703 .51681 .018405 .013372 .51842 1.e-3
GW 324 1 .018405 .013372 .51842 .013372 .018405 .52003 1.e-3
GW 325 1 .013372 .018405 .52003 .00703 .021637 .52164 1.e-3
GW 326 1 .00703 .021637 .52164 .0 .02275 .52325 1.e-3
GW 327 1 .0 .02275 .52325 -.00703 .021637 .52486 1.e-3
GW 328 1 -.00703 .021637 .52486 -.013372 .018405 .52647 1.e-3
GW 329 1 -.013372 .018405 .52647 -.018405 .013372 .52808 1.e-3
GW 330 1 -.018405 .013372 .52808 -.021637 .00703 .52969 1.e-3
GW 331 1 -.021637 .00703 .52969 -.02275 .0 .5313 1.e-3
GW 332 1 -.02275 .0 .5313 -.021637 -.00703 .53291 1.e-3
GW 333 1 -.021637 -.00703 .53291 -.018405 -.013372 .53452 1.e-3
GW 334 1 -.018405 -.013372 .53452 -.013372 -.018405 .53613 1.e-3
GW 335 1 -.013372 -.018405 .53613 -.00703 -.021637 .53774 1.e-3
GW 336 1 -.00703 -.021637 .53774 .0 -.02275 .53935 1.e-3
GW 337 1 .0 -.02275 .53935 .00703 -.021637 .54096 1.e-3
GW 338 1 .00703 -.021637 .54096 .013372 -.018405 .54257 1.e-3
GW 339 1 .013372 -.018405 .54257 .018405 -.013372 .54418 1.e-3
GW 340 1 .018405 -.013372 .54418 .021637 -.00703 .54579 1.e-3
GW 341 1 .021637 -.00703 .54579 .02275 .0 .5474 1.e-3
GW 342 1 .02275 .0 .5474 .021637 .00703 .54901 1.e-3
GW 343 1 .021637 .00703 .54901 .018405 .013372 .55062 1.e-3
GW 344 1 .018405 .013372 .55062 .013372 .018405 .55223 1.e-3
GW 345 1 .013372 .018405 .55223 .00703 .021637 .55384 1.e-3
GW 346 1 .00703 .021637 .55384 .0 .02275 .55545 1.e-3
GW 347 1 .0 .02275 .55545 -.00703 .021637 .55706 1.e-3
GW 348 1 -.00703 .021637 .55706 -.013372 .018405 .55867 1.e-3
GW 349 1 -.013372 .018405 .55867 -.018405 .013372 .56028 1.e-3
GW 350 1 -.018405 .013372 .56028 -.021637 .00703 .56189 1.e-3
GW 351 1 -.021637 .00703 .56189 -.02275 .0 .5635 1.e-3
GW 352 1 -.02275 .0 .5635 -.021637 -.00703 .56511 1.e-3
GW 353 1 -.021637 -.00703 .56511 -.018405 -.013372 .56672 1.e-3
GW 354 1 -.018405 -.013372 .56672 -.013372 -.018405 .56833 1.e-3
GW 355 1 -.013372 -.018405 .56833 -.00703 -.021637 .56994 1.e-3
GW 356 1 -.00703 -.021637 .56994 .0 -.02275 .57155 1.e-3
GW 357 1 .0 -.02275 .57155 .00703 -.021637 .57316 1.e-3
GW 358 1 .00703 -.021637 .57316 .013372 -.018405 .57477 1.e-3
GW 359 1 .013372 -.018405 .57477 .018405 -.013372 .57638 1.e-3
GW 360 1 .018405 -.013372 .57638 .021637 -.00703 .57799 1.e-3
GW 361 1 .021637 -.00703 .57799 .02275 .0 .5796 1.e-3
GW 362 1 .02275 .0 .5796 .021637 .00703 .58121 1.e-3
GW 363 1 .021637 .00703 .58121 .018405 .013372 .58282 1.e-3
GW 364 1 .018405 .013372 .58282 .013372 .018405 .58443 1.e-3
GW 365 1 .013372 .018405 .58443 .00703 .021637 .58604 1.e-3
GW 366 1 .00703 .021637 .58604 .0 .02275 .58765 1.e-3
GW 367 1 .0 .02275 .58765 -.00703 .021637 .58926 1.e-3
GW 368 1 -.00703 .021637 .58926 -.013372 .018405 .59087 1.e-3
GW 369 1 -.013372 .018405 .59087 -.018405 .013372 .59248 1.e-3
GW 370 1 -.018405 .013372 .59248 -.021637 .00703 .59409 1.e-3
GW 371 1 -.021637 .00703 .59409 -.02275 .0 .5957 1.e-3
GW 372 1 -.02275 .0 .5957 -.021637 -.00703 .59731 1.e-3
GW 373 1 -.021637 -.00703 .59731 -.018405 -.013372 .59892 1.e-3
GW 374 1 -.018405 -.013372 .59892 -.013372 -.018405 .60053 1.e-3
GW 375 1 -.013372 -.018405 .60053 -.00703 -.021637 .60214 1.e-3
GW 376 1 -.00703 -.021637 .60214 .0 -.02275 .60375 1.e-3
GW 377 1 .0 -.02275 .60375 .00703 -.021637 .60536 1.e-3
GW 378 1 .00703 -.021637 .60536 .013372 -.018405 .60697 1.e-3
GW 379 1 .013372 -.018405 .60697 .018405 -.013372 .60858 1.e-3
GW 380 1 .018405 -.013372 .60858 .021637 -.00703 .61019 1.e-3
GW 381 1 .021637 -.00703 .61019 .02275 .0 .6118 1.e-3
GW 382 1 .02275 .0 .6118 .021637 .00703 .61341 1.e-3
GW 383 1 .021637 .00703 .61341 .018405 .013372 .61502 1.e-3
GW 384 1 .018405 .013372 .61502 .013372 .018405 .61663 1.e-3
GW 385 1 .013372 .018405 .61663 .00703 .021637 .61824 1.e-3
GW 386 1 .00703 .021637 .61824 .0 .02275 .61985 1.e-3
GW 387 1 .0 .02275 .61985 -.00703 .021637 .62146 1.e-3
GW 388 1 -.00703 .021637 .62146 -.013372 .018405 .62307 1.e-3
GW 389 1 -.013372 .018405 .62307 -.018405 .013372 .62468 1.e-3
GW 390 1 -.018405 .013372 .62468 -.021637 .00703 .62629 1.e-3
GW 391 1 -.021637 .00703 .62629 -.02275 .0 .6279 1.e-3
GW 392 1 -.02275 .0 .6279 -.021637 -.00703 .62951 1.e-3
GW 393 1 -.021637 -.00703 .62951 -.018405 -.013372 .63112 1.e-3
GW 394 1 -.018405 -.013372 .63112 -.013372 -.018405 .63273 1.e-3
GW 395 1 -.013372 -.018405 .63273 -.00703 -.021637 .63434 1.e-3
GW 396 1 -.00703 -.021637 .63434 .0 -.02275 .63595 1.e-3
GW 397 1 .0 -.02275 .63595 .00703 -.021637 .63756 1.e-3
GW 398 1 .00703 -.021637 .63756 .013372 -.018405 .63917 1.e-3
GW 399 1 .013372 -.018405 .63917 .018405 -.013372 .64078 1.e-3
GW 400 1 .018405 -.013372 .64078 .021637 -.00703 .64239 1.e-3
GW 401 1 .021637 -.00703 .64239 .02275 .0 .644 1.e-3
GW 402 1 .02275 .0 .644 .0 .0 .644 1.e-3
GW 403 1 .0 .0 .0 .01 .0 .0 1.e-3
GW 404 1 .01 .0 .0 .02 .0 .0 1.e-3
GW 405 1 .02 .0 .0 .03 .0 .0 1.e-3
GW 406 1 .03 .0 .0 .04 .0 .0 1.e-3
GW 407 1 .04 .0 .0 .05 .0 .0 1.e-3
GW 408 1 .05 .0 .0 .06 .0 .0 1.e-3
GW 409 1 .06 .0 .0 .07 .0 .0 1.e-3
GW 410 1 .07 .0 .0 .08 .0 .0 1.e-3
GW 411 1 .08 .0 .0 .09 .0 .0 1.e-3
GW 412 1 .09 .0 .0 .1 .0 .0 1.e-3
GW 413 1 .0 .0 .0 .009397 .00342 .0 1.e-3
GW 414 1 .009397 .00342 .0 .018794 .00684 .0 1.e-3
GW 415 1 .018794 .00684 .0 .028191 .010261 .0 1.e-3
GW 416 1 .028191 .010261 .0 .037588 .013681 .0 1.e-3
GW 417 1 .037588 .013681 .0 .046985 .017101 .0 1.e-3
GW 418 1 .046985 .017101 .0 .056382 .020521 .0 1.e-3
GW 419 1 .056382 .020521 .0 .065778 .023941 .0 1.e-3
GW 420 1 .065778 .023941 .0 .075175 .027362 .0 1.e-3
GW 421 1 .075175 .027362 .0 .084572 .030782 .0 1.e-3
GW 422 1 .084572 .030782 .0 .093969 .034202 .0 1.e-3
GW 423 1 .0 .0 .0 .00766 .006428 .0 1.e-3
GW 424 1 .00766 .006428 .0 .015321 .012856 .0 1.e-3
GW 425 1 .015321 .012856 .0 .022981 .019284 .0 1.e-3
GW 426 1 .022981 .019284 .0 .030642 .025712 .0 1.e-3
GW 427 1 .030642 .025712 .0 .038302 .032139 .0 1.e-3
GW 428 1 .038302 .032139 .0 .045963 .038567 .0 1.e-3
GW 429 1 .045963 .038567 .0 .053623 .044995 .0 1.e-3
GW 430 1 .053623 .044995 .0 .061284 .051423 .0 1.e-3
GW 431 1 .061284 .051423 .0 .068944 .057851 .0 1.e-3
GW 432 1 .068944 .057851 .0 .076604 .064279 .0 1.e-3
GW 433 1 .0 .0 .0 .005 .00866 .0 1.e-3
GW 434 1 .005 .00866 .0 .01 .017321 .0 1.e-3
GW 435 1 .01 .017321 .0 .015 .025981 .0 1.e-3
GW 436 1 .015 .025981 .0 .02 .034641 .0 1.e-3
GW 437 1 .02 .034641 .0 .025 .043301 .0 1.e-3
GW 438 1 .025 .043301 .0 .03 .051962 .0 1.e-3
GW 439 1 .03 .051962 .0 .035 .060622 .0 1.e-3
GW 440 1 .035 .060622 .0 .04 .069282 .0 1.e-3
GW 441 1 .04 .069282 .0 .045 .077942 .0 1.e-3
GW 442 1 .045 .077942 .0 .05 .086603 .0 1.e-3
GW 443 1 .0 .0 .0 .001736 .009848 .0 1.e-3
GW 444 1 .001736 .009848 .0 .003473 .019696 .0 1.e-3
GW 445 1 .003473 .019696 .0 .005209 .029544 .0 1.e-3
GW 446 1 .005209 .029544 .0 .006946 .039392 .0 1.e-3
GW 447 1 .006946 .039392 .0 .008682 .04924 .0 1.e-3
GW 448 1 .008682 .04924 .0 .010419 .059088 .0 1.e-3
GW 449 1 .010419 .059088 .0 .012155 .068937 .0 1.e-3
GW 450 1 .012155 .068937 .0 .013892 .078785 .0 1.e-3
GW 451 1 .013892 .078785 .0 .015628 .088633 .0 1.e-3
GW 452 1 .015628 .088633 .0 .017365 .098481 .0 1.e-3
GW 453 1 .0 .0 .0 -.001736 .009848 .0 1.e-3
GW 454 1 -.001736 .009848 .0 -.003473 .019696 .0 1.e-3
GW 455 1 -.003473 .019696 .0 -.005209 .029544 .0 1.e-3
GW 456 1 -.005209 .029544 .0 -.006946 .039392 .0 1.e-3
GW 457 1 -.006946 .039392 .0 -.008682 .04924 .0 1.e-3
GW 458 1 -.008682 .04924 .0 -.010419 .059088 .0 1.e-3
GW 459 1 -.010419 .059088 .0 -.012155 .068937 .0 1.e-3
GW 460 1 -.012155 .068937 .0 -.013892 .078785 .0 1.e-3
GW 461 1 -.013892 .078785 .0 -.015628 .088633 .0 1.e-3
GW 462 1 -.015628 .088633 .0 -.017365 .098481 .0 1.e-3
GW 463 1 .0 .0 .0 -.005 .00866 .0 1.e-3
GW 464 1 -.005 .00866 .0 -.01 .017321 .0 1.e-3
GW 465 1 -.01 .017321 .0 -.015 .025981 .0 1.e-3
GW 466 1 -.015 .025981 .0 -.02 .034641 .0 1.e-3
GW 467 1 -.02 .034641 .0 -.025 .043301 .0 1.e-3
GW 468 1 -.025 .043301 .0 -.03 .051962 .0 1.e-3
GW 469 1 -.03 .051962 .0 -.035 .060622 .0 1.e-3
GW 470 1 -.035 .060622 .0 -.04 .069282 .0 1.e-3
GW 471 1 -.04 .069282 .0 -.045 .077942 .0 1.e-3
GW 472 1 -.045 .077942 .0 -.05 .086603 .0 1.e-3
GW 473 1 .0 .0 .0 -.00766 .006428 .0 1.e-3
GW 474 1 -.00766 .006428 .0 -.015321 .012856 .0 1.e-3
GW 475 1 -.015321 .012856 .0 -.022981 .019284 .0 1.e-3
GW 476 1 -.022981 .019284 .0 -.030642 .025712 .0 1.e-3
GW 477 1 -.030642 .025712 .0 -.038302 .032139 .0 1.e-3
GW 478 1 -.038302 .032139 .0 -.045963 .038567 .0 1.e-3
GW 479 1 -.045963 .038567 .0 -.053623 .044995 .0 1.e-3
GW 480 1 -.053623 .044995 .0 -.061284 .051423 .0 1.e-3
GW 481 1 -.061284 .051423 .0 -.068944 .057851 .0 1.e-3
GW 482 1 -.068944 .057851 .0 -.076604 .064279 .0 1.e-3
GW 483 1 .0 .0 .0 -.009397 .00342 .0 1.e-3
GW 484 1 -.009397 .00342 .0 -.018794 .00684 .0 1.e-3
GW 485 1 -.018794 .00684 .0 -.028191 .010261 .0 1.e-3
GW 486 1 -.028191 .010261 .0 -.037588 .013681 .0 1.e-3
GW 487 1 -.037588 .013681 .0 -.046985 .017101 .0 1.e-3
GW 488 1 -.046985 .017101 .0 -.056382 .020521 .0 1.e-3
GW 489 1 -.056382 .020521 .0 -.065778 .023941 .0 1.e-3
GW 490 1 -.065778 .023941 .0 -.075175 .027362 .0 1.e-3
GW 491 1 -.075175 .027362 .0 -.084572 .030782 .0 1.e-3
GW 492 1 -.084572 .030782 .0 -.093969 .034202 .0 1.e-3
GW 493 1 .0 .0 .0 -.01 .0 .0 1.e-3
GW 494 1 -.01 .0 .0 -.02 .0 .0 1.e-3
GW 495 1 -.02 .0 .0 -.03 .0 .0 1.e-3
GW 496 1 -.03 .0 .0 -.04 .0 .0 1.e-3
GW 497 1 -.04 .0 .0 -.05 .0 .0 1.e-3
GW 498 1 -.05 .0 .0 -.06 .0 .0 1.e-3
GW 499 1 -.06 .0 .0 -.07 .0 .0 1.e-3
GW 500 1 -.07 .0 .0 -.08 .0 .0 1.e-3
GW 501 1 -.08 .0 .0 -.09 .0 .0 1.e-3
GW 502 1 -.09 .0 .0 -.1 .0 .0 1.e-3
GW 503 1 .0 .0 .0 -.009397 -.00342 .0 1.e-3
GW 504 1 -.009397 -.00342 .0 -.018794 -.00684 .0 1.e-3
GW 505 1 -.018794 -.00684 .0 -.028191 -.010261 .0 1.e-3
GW 506 1 -.028191 -.010261 .0 -.037588 -.013681 .0 1.e-3
GW 507 1 -.037588 -.013681 .0 -.046985 -.017101 .0 1.e-3
GW 508 1 -.046985 -.017101 .0 -.056382 -.020521 .0 1.e-3
GW 509 1 -.056382 -.020521 .0 -.065778 -.023941 .0 1.e-3
GW 510 1 -.065778 -.023941 .0 -.075175 -.027362 .0 1.e-3
GW 511 1 -.075175 -.027362 .0 -.084572 -.030782 .0 1.e-3
GW 512 1 -.084572 -.030782 .0 -.093969 -.034202 .0 1.e-3
GW 513 1 .0 .0 .0 -.00766 -.006428 .0 1.e-3
GW 514 1 -.00766 -.006428 .0 -.015321 -.012856 .0 1.e-3
GW 515 1 -.015321 -.012856 .0 -.022981 -.019284 .0 1.e-3
GW 516 1 -.022981 -.019284 .0 -.030642 -.025712 .0 1.e-3
GW 517 1 -.030642 -.025712 .0 -.038302 -.032139 .0 1.e-3
GW 518 1 -.038302 -.032139 .0 -.045963 -.038567 .0 1.e-3
GW 519 1 -.045963 -.038567 .0 -.053623 -.044995 .0 1.e-3
GW 520 1 -.053623 -.044995 .0 -.061284 -.051423 .0 1.e-3
GW 521 1 -.061284 -.051423 .0 -.068944 -.057851 .0 1.e-3
GW 522 1 -.068944 -.057851 .0 -.076604 -.064279 .0 1.e-3
GW 523 1 .0 .0 .0 -.005 -.00866 .0 1.e-3
GW 524 1 -.005 -.00866 .0 -.01 -.017321 .0 1.e-3
GW 525 1 -.01 -.017321 .0 -.015 -.025981 .0 1.e-3
GW 526 1 -.015 -.025981 .0 -.02 -.034641 .0 1.e-3
GW 527 1 -.02 -.034641 .0 -.025 -.043301 .0 1.e-3
GW 528 1 -.025 -.043301 .0 -.03 -.051962 .0 1.e-3
GW 529 1 -.03 -.051962 .0 -.035 -.060622 .0 1.e-3
GW 530 1 -.035 -.060622 .0 -.04 -.069282 .0 1.e-3
GW 531 1 -.04 -.069282 .0 -.045 -.077942 .0 1.e-3
GW 532 1 -.045 -.077942 .0 -.05 -.086603 .0 1.e-3