CM Length L in mtr. = 0.612
CM Radius R1 in cm. = 2.275
CM Radius R2 in cm. = 2.275
CM Number of turns = 19
CM Segments per turn = 16
CM Rotate X, Y, Z = 0, 0, 0
CM Move X, Y, Z = 0, 0, 0
CE
GW 1 1 .0 .0 .0 .02275 .0 .0 .00125
GW 2 1 .02275 .0 .0 .021018 .008706 .002013 .00125
GW 3 1 .021018 .008706 .002013 .016087 .016087 .004026 .00125
GW 4 1 .016087 .016087 .004026 .008706 .021018 .006039 .00125
GW 5 1 .008706 .021018 .006039 .0 .02275 .008053 .00125
GW 6 1 .0 .02275 .008053 -.008706 .021018 .010066 .00125
GW 7 1 -.008706 .021018 .010066 -.016087 .016087 .012079 .00125
GW 8 1 -.016087 .016087 .012079 -.021018 .008706 .014092 .00125
GW 9 1 -.021018 .008706 .014092 -.02275 .0 .016105 .00125
GW 10 1 -.02275 .0 .016105 -.021018 -.008706 .018118 .00125
GW 11 1 -.021018 -.008706 .018118 -.016087 -.016087 .020132 .00125
GW 12 1 -.016087 -.016087 .020132 -.008706 -.021018 .022145 .00125
GW 13 1 -.008706 -.021018 .022145 .0 -.02275 .024158 .00125
GW 14 1 .0 -.02275 .024158 .008706 -.021018 .026171 .00125
GW 15 1 .008706 -.021018 .026171 .016087 -.016087 .028184 .00125
GW 16 1 .016087 -.016087 .028184 .021018 -.008706 .030197 .00125
GW 17 1 .021018 -.008706 .030197 .02275 .0 .032211 .00125
GW 18 1 .02275 .0 .032211 .021018 .008706 .034224 .00125
GW 19 1 .021018 .008706 .034224 .016087 .016087 .036237 .00125
GW 20 1 .016087 .016087 .036237 .008706 .021018 .03825 .00125
GW 21 1 .008706 .021018 .03825 .0 .02275 .040263 .00125
GW 22 1 .0 .02275 .040263 -.008706 .021018 .042276 .00125
GW 23 1 -.008706 .021018 .042276 -.016087 .016087 .044289 .00125
GW 24 1 -.016087 .016087 .044289 -.021018 .008706 .046303 .00125
GW 25 1 -.021018 .008706 .046303 -.02275 .0 .048316 .00125
GW 26 1 -.02275 .0 .048316 -.021018 -.008706 .050329 .00125
GW 27 1 -.021018 -.008706 .050329 -.016087 -.016087 .052342 .00125
GW 28 1 -.016087 -.016087 .052342 -.008706 -.021018 .054355 .00125
GW 29 1 -.008706 -.021018 .054355 .0 -.02275 .056368 .00125
GW 30 1 .0 -.02275 .056368 .008706 -.021018 .058382 .00125
GW 31 1 .008706 -.021018 .058382 .016087 -.016087 .060395 .00125
GW 32 1 .016087 -.016087 .060395 .021018 -.008706 .062408 .00125
GW 33 1 .021018 -.008706 .062408 .02275 .0 .064421 .00125
GW 34 1 .02275 .0 .064421 .021018 .008706 .066434 .00125
GW 35 1 .021018 .008706 .066434 .016087 .016087 .068447 .00125
GW 36 1 .016087 .016087 .068447 .008706 .021018 .070461 .00125
GW 37 1 .008706 .021018 .070461 .0 .02275 .072474 .00125
GW 38 1 .0 .02275 .072474 -.008706 .021018 .074487 .00125
GW 39 1 -.008706 .021018 .074487 -.016087 .016087 .0765 .00125
GW 40 1 -.016087 .016087 .0765 -.021018 .008706 .078513 .00125
GW 41 1 -.021018 .008706 .078513 -.02275 .0 .080526 .00125
GW 42 1 -.02275 .0 .080526 -.021018 -.008706 .082539 .00125
GW 43 1 -.021018 -.008706 .082539 -.016087 -.016087 .084553 .00125
GW 44 1 -.016087 -.016087 .084553 -.008706 -.021018 .086566 .00125
GW 45 1 -.008706 -.021018 .086566 .0 -.02275 .088579 .00125
GW 46 1 .0 -.02275 .088579 .008706 -.021018 .090592 .00125
GW 47 1 .008706 -.021018 .090592 .016087 -.016087 .092605 .00125
GW 48 1 .016087 -.016087 .092605 .021018 -.008706 .094618 .00125
GW 49 1 .021018 -.008706 .094618 .02275 .0 .096632 .00125
GW 50 1 .02275 .0 .096632 .021018 .008706 .098645 .00125
GW 51 1 .021018 .008706 .098645 .016087 .016087 .100658 .00125
GW 52 1 .016087 .016087 .100658 .008706 .021018 .102671 .00125
GW 53 1 .008706 .021018 .102671 .0 .02275 .104684 .00125
GW 54 1 .0 .02275 .104684 -.008706 .021018 .106697 .00125
GW 55 1 -.008706 .021018 .106697 -.016087 .016087 .108711 .00125
GW 56 1 -.016087 .016087 .108711 -.021018 .008706 .110724 .00125
GW 57 1 -.021018 .008706 .110724 -.02275 .0 .112737 .00125
GW 58 1 -.02275 .0 .112737 -.021018 -.008706 .11475 .00125
GW 59 1 -.021018 -.008706 .11475 -.016087 -.016087 .116763 .00125
GW 60 1 -.016087 -.016087 .116763 -.008706 -.021018 .118776 .00125
GW 61 1 -.008706 -.021018 .118776 .0 -.02275 .120789 .00125
GW 62 1 .0 -.02275 .120789 .008706 -.021018 .122803 .00125
GW 63 1 .008706 -.021018 .122803 .016087 -.016087 .124816 .00125
GW 64 1 .016087 -.016087 .124816 .021018 -.008706 .126829 .00125
GW 65 1 .021018 -.008706 .126829 .02275 .0 .128842 .00125
GW 66 1 .02275 .0 .128842 .021018 .008706 .130855 .00125
GW 67 1 .021018 .008706 .130855 .016087 .016087 .132868 .00125
GW 68 1 .016087 .016087 .132868 .008706 .021018 .134882 .00125
GW 69 1 .008706 .021018 .134882 .0 .02275 .136895 .00125
GW 70 1 .0 .02275 .136895 -.008706 .021018 .138908 .00125
GW 71 1 -.008706 .021018 .138908 -.016087 .016087 .140921 .00125
GW 72 1 -.016087 .016087 .140921 -.021018 .008706 .142934 .00125
GW 73 1 -.021018 .008706 .142934 -.02275 .0 .144947 .00125
GW 74 1 -.02275 .0 .144947 -.021018 -.008706 .146961 .00125
GW 75 1 -.021018 -.008706 .146961 -.016087 -.016087 .148974 .00125
GW 76 1 -.016087 -.016087 .148974 -.008706 -.021018 .150987 .00125
GW 77 1 -.008706 -.021018 .150987 .0 -.02275 .153 .00125
GW 78 1 .0 -.02275 .153 .008706 -.021018 .155013 .00125
GW 79 1 .008706 -.021018 .155013 .016087 -.016087 .157026 .00125
GW 80 1 .016087 -.016087 .157026 .021018 -.008706 .159039 .00125
GW 81 1 .021018 -.008706 .159039 .02275 .0 .161053 .00125
GW 82 1 .02275 .0 .161053 .021018 .008706 .163066 .00125
GW 83 1 .021018 .008706 .163066 .016087 .016087 .165079 .00125
GW 84 1 .016087 .016087 .165079 .008706 .021018 .167092 .00125
GW 85 1 .008706 .021018 .167092 .0 .02275 .169105 .00125
GW 86 1 .0 .02275 .169105 -.008706 .021018 .171118 .00125
GW 87 1 -.008706 .021018 .171118 -.016087 .016087 .173132 .00125
GW 88 1 -.016087 .016087 .173132 -.021018 .008706 .175145 .00125
GW 89 1 -.021018 .008706 .175145 -.02275 .0 .177158 .00125
GW 90 1 -.02275 .0 .177158 -.021018 -.008706 .179171 .00125
GW 91 1 -.021018 -.008706 .179171 -.016087 -.016087 .181184 .00125
GW 92 1 -.016087 -.016087 .181184 -.008706 -.021018 .183197 .00125
GW 93 1 -.008706 -.021018 .183197 .0 -.02275 .185211 .00125
GW 94 1 .0 -.02275 .185211 .008706 -.021018 .187224 .00125
GW 95 1 .008706 -.021018 .187224 .016087 -.016087 .189237 .00125
GW 96 1 .016087 -.016087 .189237 .021018 -.008706 .19125 .00125
GW 97 1 .021018 -.008706 .19125 .02275 .0 .193263 .00125
GW 98 1 .02275 .0 .193263 .021018 .008706 .195276 .00125
GW 99 1 .021018 .008706 .195276 .016087 .016087 .197289 .00125
GW 100 1 .016087 .016087 .197289 .008706 .021018 .199303 .00125
GW 101 1 .008706 .021018 .199303 .0 .02275 .201316 .00125
GW 102 1 .0 .02275 .201316 -.008706 .021018 .203329 .00125
GW 103 1 -.008706 .021018 .203329 -.016087 .016087 .205342 .00125
GW 104 1 -.016087 .016087 .205342 -.021018 .008706 .207355 .00125
GW 105 1 -.021018 .008706 .207355 -.02275 .0 .209368 .00125
GW 106 1 -.02275 .0 .209368 -.021018 -.008706 .211382 .00125
GW 107 1 -.021018 -.008706 .211382 -.016087 -.016087 .213395 .00125
GW 108 1 -.016087 -.016087 .213395 -.008706 -.021018 .215408 .00125
GW 109 1 -.008706 -.021018 .215408 .0 -.02275 .217421 .00125
GW 110 1 .0 -.02275 .217421 .008706 -.021018 .219434 .00125
GW 111 1 .008706 -.021018 .219434 .016087 -.016087 .221447 .00125
GW 112 1 .016087 -.016087 .221447 .021018 -.008706 .223461 .00125
GW 113 1 .021018 -.008706 .223461 .02275 .0 .225474 .00125
GW 114 1 .02275 .0 .225474 .021018 .008706 .227487 .00125
GW 115 1 .021018 .008706 .227487 .016087 .016087 .2295 .00125
GW 116 1 .016087 .016087 .2295 .008706 .021018 .231513 .00125
GW 117 1 .008706 .021018 .231513 .0 .02275 .233526 .00125
GW 118 1 .0 .02275 .233526 -.008706 .021018 .235539 .00125
GW 119 1 -.008706 .021018 .235539 -.016087 .016087 .237553 .00125
GW 120 1 -.016087 .016087 .237553 -.021018 .008706 .239566 .00125
GW 121 1 -.021018 .008706 .239566 -.02275 .0 .241579 .00125
GW 122 1 -.02275 .0 .241579 -.021018 -.008706 .243592 .00125
GW 123 1 -.021018 -.008706 .243592 -.016087 -.016087 .245605 .00125
GW 124 1 -.016087 -.016087 .245605 -.008706 -.021018 .247618 .00125
GW 125 1 -.008706 -.021018 .247618 .0 -.02275 .249632 .00125
GW 126 1 .0 -.02275 .249632 .008706 -.021018 .251645 .00125
GW 127 1 .008706 -.021018 .251645 .016087 -.016087 .253658 .00125
GW 128 1 .016087 -.016087 .253658 .021018 -.008706 .255671 .00125
GW 129 1 .021018 -.008706 .255671 .02275 .0 .257684 .00125
GW 130 1 .02275 .0 .257684 .021018 .008706 .259697 .00125
GW 131 1 .021018 .008706 .259697 .016087 .016087 .261711 .00125
GW 132 1 .016087 .016087 .261711 .008706 .021018 .263724 .00125
GW 133 1 .008706 .021018 .263724 .0 .02275 .265737 .00125
GW 134 1 .0 .02275 .265737 -.008706 .021018 .26775 .00125
GW 135 1 -.008706 .021018 .26775 -.016087 .016087 .269763 .00125
GW 136 1 -.016087 .016087 .269763 -.021018 .008706 .271776 .00125
GW 137 1 -.021018 .008706 .271776 -.02275 .0 .273789 .00125
GW 138 1 -.02275 .0 .273789 -.021018 -.008706 .275803 .00125
GW 139 1 -.021018 -.008706 .275803 -.016087 -.016087 .277816 .00125
GW 140 1 -.016087 -.016087 .277816 -.008706 -.021018 .279829 .00125
GW 141 1 -.008706 -.021018 .279829 .0 -.02275 .281842 .00125
GW 142 1 .0 -.02275 .281842 .008706 -.021018 .283855 .00125
GW 143 1 .008706 -.021018 .283855 .016087 -.016087 .285868 .00125
GW 144 1 .016087 -.016087 .285868 .021018 -.008706 .287882 .00125
GW 145 1 .021018 -.008706 .287882 .02275 .0 .289895 .00125
GW 146 1 .02275 .0 .289895 .021018 .008706 .291908 .00125
GW 147 1 .021018 .008706 .291908 .016087 .016087 .293921 .00125
GW 148 1 .016087 .016087 .293921 .008706 .021018 .295934 .00125
GW 149 1 .008706 .021018 .295934 .0 .02275 .297947 .00125
GW 150 1 .0 .02275 .297947 -.008706 .021018 .299961 .00125
GW 151 1 -.008706 .021018 .299961 -.016087 .016087 .301974 .00125
GW 152 1 -.016087 .016087 .301974 -.021018 .008706 .303987 .00125
GW 153 1 -.021018 .008706 .303987 -.02275 .0 .306 .00125
GW 154 1 -.02275 .0 .306 -.021018 -.008706 .308013 .00125
GW 155 1 -.021018 -.008706 .308013 -.016087 -.016087 .310026 .00125
GW 156 1 -.016087 -.016087 .310026 -.008706 -.021018 .312039 .00125
GW 157 1 -.008706 -.021018 .312039 .0 -.02275 .314053 .00125
GW 158 1 .0 -.02275 .314053 .008706 -.021018 .316066 .00125
GW 159 1 .008706 -.021018 .316066 .016087 -.016087 .318079 .00125
GW 160 1 .016087 -.016087 .318079 .021018 -.008706 .320092 .00125
GW 161 1 .021018 -.008706 .320092 .02275 .0 .322105 .00125
GW 162 1 .02275 .0 .322105 .021018 .008706 .324118 .00125
GW 163 1 .021018 .008706 .324118 .016087 .016087 .326132 .00125
GW 164 1 .016087 .016087 .326132 .008706 .021018 .328145 .00125
GW 165 1 .008706 .021018 .328145 .0 .02275 .330158 .00125
GW 166 1 .0 .02275 .330158 -.008706 .021018 .332171 .00125
GW 167 1 -.008706 .021018 .332171 -.016087 .016087 .334184 .00125
GW 168 1 -.016087 .016087 .334184 -.021018 .008706 .336197 .00125
GW 169 1 -.021018 .008706 .336197 -.02275 .0 .338211 .00125
GW 170 1 -.02275 .0 .338211 -.021018 -.008706 .340224 .00125
GW 171 1 -.021018 -.008706 .340224 -.016087 -.016087 .342237 .00125
GW 172 1 -.016087 -.016087 .342237 -.008706 -.021018 .34425 .00125
GW 173 1 -.008706 -.021018 .34425 .0 -.02275 .346263 .00125
GW 174 1 .0 -.02275 .346263 .008706 -.021018 .348276 .00125
GW 175 1 .008706 -.021018 .348276 .016087 -.016087 .350289 .00125
GW 176 1 .016087 -.016087 .350289 .021018 -.008706 .352303 .00125
GW 177 1 .021018 -.008706 .352303 .02275 .0 .354316 .00125
GW 178 1 .02275 .0 .354316 .021018 .008706 .356329 .00125
GW 179 1 .021018 .008706 .356329 .016087 .016087 .358342 .00125
GW 180 1 .016087 .016087 .358342 .008706 .021018 .360355 .00125
GW 181 1 .008706 .021018 .360355 .0 .02275 .362368 .00125
GW 182 1 .0 .02275 .362368 -.008706 .021018 .364382 .00125
GW 183 1 -.008706 .021018 .364382 -.016087 .016087 .366395 .00125
GW 184 1 -.016087 .016087 .366395 -.021018 .008706 .368408 .00125
GW 185 1 -.021018 .008706 .368408 -.02275 .0 .370421 .00125
GW 186 1 -.02275 .0 .370421 -.021018 -.008706 .372434 .00125
GW 187 1 -.021018 -.008706 .372434 -.016087 -.016087 .374447 .00125
GW 188 1 -.016087 -.016087 .374447 -.008706 -.021018 .376461 .00125
GW 189 1 -.008706 -.021018 .376461 .0 -.02275 .378474 .00125
GW 190 1 .0 -.02275 .378474 .008706 -.021018 .380487 .00125
GW 191 1 .008706 -.021018 .380487 .016087 -.016087 .3825 .00125
GW 192 1 .016087 -.016087 .3825 .021018 -.008706 .384513 .00125
GW 193 1 .021018 -.008706 .384513 .02275 .0 .386526 .00125
GW 194 1 .02275 .0 .386526 .021018 .008706 .388539 .00125
GW 195 1 .021018 .008706 .388539 .016087 .016087 .390553 .00125
GW 196 1 .016087 .016087 .390553 .008706 .021018 .392566 .00125
GW 197 1 .008706 .021018 .392566 .0 .02275 .394579 .00125
GW 198 1 .0 .02275 .394579 -.008706 .021018 .396592 .00125
GW 199 1 -.008706 .021018 .396592 -.016087 .016087 .398605 .00125
GW 200 1 -.016087 .016087 .398605 -.021018 .008706 .400618 .00125
GW 201 1 -.021018 .008706 .400618 -.02275 .0 .402632 .00125
GW 202 1 -.02275 .0 .402632 -.021018 -.008706 .404645 .00125
GW 203 1 -.021018 -.008706 .404645 -.016087 -.016087 .406658 .00125
GW 204 1 -.016087 -.016087 .406658 -.008706 -.021018 .408671 .00125
GW 205 1 -.008706 -.021018 .408671 .0 -.02275 .410684 .00125
GW 206 1 .0 -.02275 .410684 .008706 -.021018 .412697 .00125
GW 207 1 .008706 -.021018 .412697 .016087 -.016087 .414711 .00125
GW 208 1 .016087 -.016087 .414711 .021018 -.008706 .416724 .00125
GW 209 1 .021018 -.008706 .416724 .02275 .0 .418737 .00125
GW 210 1 .02275 .0 .418737 .021018 .008706 .42075 .00125
GW 211 1 .021018 .008706 .42075 .016087 .016087 .422763 .00125
GW 212 1 .016087 .016087 .422763 .008706 .021018 .424776 .00125
GW 213 1 .008706 .021018 .424776 .0 .02275 .426789 .00125
GW 214 1 .0 .02275 .426789 -.008706 .021018 .428803 .00125
GW 215 1 -.008706 .021018 .428803 -.016087 .016087 .430816 .00125
GW 216 1 -.016087 .016087 .430816 -.021018 .008706 .432829 .00125
GW 217 1 -.021018 .008706 .432829 -.02275 .0 .434842 .00125
GW 218 1 -.02275 .0 .434842 -.021018 -.008706 .436855 .00125
GW 219 1 -.021018 -.008706 .436855 -.016087 -.016087 .438868 .00125
GW 220 1 -.016087 -.016087 .438868 -.008706 -.021018 .440882 .00125
GW 221 1 -.008706 -.021018 .440882 .0 -.02275 .442895 .00125
GW 222 1 .0 -.02275 .442895 .008706 -.021018 .444908 .00125
GW 223 1 .008706 -.021018 .444908 .016087 -.016087 .446921 .00125
GW 224 1 .016087 -.016087 .446921 .021018 -.008706 .448934 .00125
GW 225 1 .021018 -.008706 .448934 .02275 .0 .450947 .00125
GW 226 1 .02275 .0 .450947 .021018 .008706 .452961 .00125
GW 227 1 .021018 .008706 .452961 .016087 .016087 .454974 .00125
GW 228 1 .016087 .016087 .454974 .008706 .021018 .456987 .00125
GW 229 1 .008706 .021018 .456987 .0 .02275 .459 .00125
GW 230 1 .0 .02275 .459 -.008706 .021018 .461013 .00125
GW 231 1 -.008706 .021018 .461013 -.016087 .016087 .463026 .00125
GW 232 1 -.016087 .016087 .463026 -.021018 .008706 .465039 .00125
GW 233 1 -.021018 .008706 .465039 -.02275 .0 .467053 .00125
GW 234 1 -.02275 .0 .467053 -.021018 -.008706 .469066 .00125
GW 235 1 -.021018 -.008706 .469066 -.016087 -.016087 .471079 .00125
GW 236 1 -.016087 -.016087 .471079 -.008706 -.021018 .473092 .00125
GW 237 1 -.008706 -.021018 .473092 .0 -.02275 .475105 .00125
GW 238 1 .0 -.02275 .475105 .008706 -.021018 .477118 .00125
GW 239 1 .008706 -.021018 .477118 .016087 -.016087 .479132 .00125
GW 240 1 .016087 -.016087 .479132 .021018 -.008706 .481145 .00125
GW 241 1 .021018 -.008706 .481145 .02275 .0 .483158 .00125
GW 242 1 .02275 .0 .483158 .021018 .008706 .485171 .00125
GW 243 1 .021018 .008706 .485171 .016087 .016087 .487184 .00125
GW 244 1 .016087 .016087 .487184 .008706 .021018 .489197 .00125
GW 245 1 .008706 .021018 .489197 .0 .02275 .491211 .00125
GW 246 1 .0 .02275 .491211 -.008706 .021018 .493224 .00125
GW 247 1 -.008706 .021018 .493224 -.016087 .016087 .495237 .00125
GW 248 1 -.016087 .016087 .495237 -.021018 .008706 .49725 .00125
GW 249 1 -.021018 .008706 .49725 -.02275 .0 .499263 .00125
GW 250 1 -.02275 .0 .499263 -.021018 -.008706 .501276 .00125
GW 251 1 -.021018 -.008706 .501276 -.016087 -.016087 .503289 .00125
GW 252 1 -.016087 -.016087 .503289 -.008706 -.021018 .505303 .00125
GW 253 1 -.008706 -.021018 .505303 .0 -.02275 .507316 .00125
GW 254 1 .0 -.02275 .507316 .008706 -.021018 .509329 .00125
GW 255 1 .008706 -.021018 .509329 .016087 -.016087 .511342 .00125
GW 256 1 .016087 -.016087 .511342 .021018 -.008706 .513355 .00125
GW 257 1 .021018 -.008706 .513355 .02275 .0 .515368 .00125
GW 258 1 .02275 .0 .515368 .021018 .008706 .517382 .00125
GW 259 1 .021018 .008706 .517382 .016087 .016087 .519395 .00125
GW 260 1 .016087 .016087 .519395 .008706 .021018 .521408 .00125
GW 261 1 .008706 .021018 .521408 .0 .02275 .523421 .00125
GW 262 1 .0 .02275 .523421 -.008706 .021018 .525434 .00125
GW 263 1 -.008706 .021018 .525434 -.016087 .016087 .527447 .00125
GW 264 1 -.016087 .016087 .527447 -.021018 .008706 .529461 .00125
GW 265 1 -.021018 .008706 .529461 -.02275 .0 .531474 .00125
GW 266 1 -.02275 .0 .531474 -.021018 -.008706 .533487 .00125
GW 267 1 -.021018 -.008706 .533487 -.016087 -.016087 .5355 .00125
GW 268 1 -.016087 -.016087 .5355 -.008706 -.021018 .537513 .00125
GW 269 1 -.008706 -.021018 .537513 .0 -.02275 .539526 .00125
GW 270 1 .0 -.02275 .539526 .008706 -.021018 .541539 .00125
GW 271 1 .008706 -.021018 .541539 .016087 -.016087 .543553 .00125
GW 272 1 .016087 -.016087 .543553 .021018 -.008706 .545566 .00125
GW 273 1 .021018 -.008706 .545566 .02275 .0 .547579 .00125
GW 274 1 .02275 .0 .547579 .021018 .008706 .549592 .00125
GW 275 1 .021018 .008706 .549592 .016087 .016087 .551605 .00125
GW 276 1 .016087 .016087 .551605 .008706 .021018 .553618 .00125
GW 277 1 .008706 .021018 .553618 .0 .02275 .555632 .00125
GW 278 1 .0 .02275 .555632 -.008706 .021018 .557645 .00125
GW 279 1 -.008706 .021018 .557645 -.016087 .016087 .559658 .00125
GW 280 1 -.016087 .016087 .559658 -.021018 .008706 .561671 .00125
GW 281 1 -.021018 .008706 .561671 -.02275 .0 .563684 .00125
GW 282 1 -.02275 .0 .563684 -.021018 -.008706 .565697 .00125
GW 283 1 -.021018 -.008706 .565697 -.016087 -.016087 .567711 .00125
GW 284 1 -.016087 -.016087 .567711 -.008706 -.021018 .569724 .00125
GW 285 1 -.008706 -.021018 .569724 .0 -.02275 .571737 .00125
GW 286 1 .0 -.02275 .571737 .008706 -.021018 .57375 .00125
GW 287 1 .008706 -.021018 .57375 .016087 -.016087 .575763 .00125
GW 288 1 .016087 -.016087 .575763 .021018 -.008706 .577776 .00125
GW 289 1 .021018 -.008706 .577776 .02275 .0 .579789 .00125
GW 290 1 .02275 .0 .579789 .021018 .008706 .581803 .00125
GW 291 1 .021018 .008706 .581803 .016087 .016087 .583816 .00125
GW 292 1 .016087 .016087 .583816 .008706 .021018 .585829 .00125
GW 293 1 .008706 .021018 .585829 .0 .02275 .587842 .00125
GW 294 1 .0 .02275 .587842 -.008706 .021018 .589855 .00125
GW 295 1 -.008706 .021018 .589855 -.016087 .016087 .591868 .00125
GW 296 1 -.016087 .016087 .591868 -.021018 .008706 .593882 .00125
GW 297 1 -.021018 .008706 .593882 -.02275 .0 .595895 .00125
GW 298 1 -.02275 .0 .595895 -.021018 -.008706 .597908 .00125
GW 299 1 -.021018 -.008706 .597908 -.016087 -.016087 .599921 .00125
GW 300 1 -.016087 -.016087 .599921 -.008706 -.021018 .601934 .00125
GW 301 1 -.008706 -.021018 .601934 .0 -.02275 .603947 .00125
GW 302 1 .0 -.02275 .603947 .008706 -.021018 .605961 .00125
GW 303 1 .008706 -.021018 .605961 .016087 -.016087 .607974 .00125
GW 304 1 .016087 -.016087 .607974 .021018 -.008706 .609987 .00125
GW 305 1 .021018 -.008706 .609987 .02275 .0 .612 .00125
GW 306 1 .02275 .0 .612 .0 .0 .612 .00125
GE 0
XQ
EN
