CM B-ant.: vertical              
CE
GW 1,15,0.,0.,9.91937,0.,0.,9.17074,.00103
GW 2,25,0.,0.,9.17074,.74863,0.,9.91937,.00103
GW 3,25,.74863,0.,9.91937,0.,0.,10.668,.00103
GW 4,25,0.,0.,10.668,.74863,0.,11.4166,.00103
GW 5,25,.74863,0.,11.4166,0.,0.,12.1652,.00103
GW 6,15,0.,0.,12.1652,0.,0.,11.4166,.00103
GE 1
LD 5,1,0,0,5.7471E+7,1.
LD 5,2,0,0,5.7471E+7,1.
LD 5,3,0,0,5.7471E+7,1.
LD 5,4,0,0,5.7471E+7,1.
LD 5,5,0,0,5.7471E+7,1.
LD 5,6,0,0,5.7471E+7,1.
FR 0,1,0,0,28.5
GN 2,0,0,0,13.,.005
EX 0,3,25,0,.707107,0.
EX 0,4,1,0,.707107,0.
RP 0,181,1,1000,90.,0.,-1.,0.,0.
EN

