CM Copper #12 Dipole
CM Average Ground
CE
GW 1 17 0 -100 420 0 100 420 0.0404331
GS 0 0 .02540
GE 1 -1 0
GN 2 0 0 0 13 .005
EX 0 1 9 0 1 0
LD 5 1 1 41 5.8001E7
FR 0 1 0 0 28.5 1
RP 0 19 73 1002 -90 0 5 5
EN