CM                         4x6 elements Irradia verso X -->
CM
CMPP 1, 0, 0, 0, 0
CE
GW  1    15       .000    -494.949   .000        .000  494.949      .000   5.000
GW  2    15    669.467    -463.206   .000     669.467  463.206      .000   5.000
GW  3    15   1406.145    -455.733   .000    1406.145  455.733      .000   5.000
GW  4    15   2024.465    -450.898   .000    2024.465  450.898      .000   5.000
GW  5    15   2952.863    -437.193   .000    2952.863  437.193      .000   5.000
GW  6    15   3649.681    -456.451   .000    3649.681  456.451      .000   5.000
GM  0    0      .000      .000      .000      .000   2040.843  1695.745     .000
GS  0    0      .001      .000      .000      .000      .000      .000     .000
GX 100  011     .000      .000      .000      .000      .000      .000     .000
GE  0    0      .000      .000      .000      .000      .000      .000     .000
FR  0    1    0   0  .1441E+03     .0000     .0000     .0000     .0000    .0000
EK  0    0    0   0  .0000E+00     .0000     .0000     .0000     .0000    .0000
LD  5    1    0   0  .2701E+08     .0000     .0000     .0000     .0000    .0000
LD  5    2    0   0  .2701E+08     .0000     .0000     .0000     .0000    .0000
LD  5    3    0   0  .2701E+08     .0000     .0000     .0000     .0000    .0000
LD  5    4    0   0  .2701E+08     .0000     .0000     .0000     .0000    .0000
LD  5    5    0   0  .2701E+08     .0000     .0000     .0000     .0000    .0000
LD  5    6    0   0  .2701E+08     .0000     .0000     .0000     .0000    .0000
LD  5  101    0   0  .2701E+08     .0000     .0000     .0000     .0000    .0000
LD  5  102    0   0  .2701E+08     .0000     .0000     .0000     .0000    .0000
LD  5  103    0   0  .2701E+08     .0000     .0000     .0000     .0000    .0000
LD  5  104    0   0  .2701E+08     .0000     .0000     .0000     .0000    .0000
LD  5  105    0   0  .2701E+08     .0000     .0000     .0000     .0000    .0000
LD  5  106    0   0  .2701E+08     .0000     .0000     .0000     .0000    .0000
LD  5  201    0   0  .2701E+08     .0000     .0000     .0000     .0000    .0000
LD  5  202    0   0  .2701E+08     .0000     .0000     .0000     .0000    .0000
LD  5  203    0   0  .2701E+08     .0000     .0000     .0000     .0000    .0000
LD  5  204    0   0  .2701E+08     .0000     .0000     .0000     .0000    .0000
LD  5  205    0   0  .2701E+08     .0000     .0000     .0000     .0000    .0000
LD  5  206    0   0  .2701E+08     .0000     .0000     .0000     .0000    .0000
LD  5  301    0   0  .2701E+08     .0000     .0000     .0000     .0000    .0000
LD  5  302    0   0  .2701E+08     .0000     .0000     .0000     .0000    .0000
LD  5  303    0   0  .2701E+08     .0000     .0000     .0000     .0000    .0000
LD  5  304    0   0  .2701E+08     .0000     .0000     .0000     .0000    .0000
LD  5  305    0   0  .2701E+08     .0000     .0000     .0000     .0000    .0000
LD  5  306    0   0  .2701E+08     .0000     .0000     .0000     .0000    .0000
KH  0    0    0   0  .1500E+01     .0000     .0000     .0000     .0000    .0000
EX  0    2    8   0  .1000E+01     .0000     .0000     .0000     .0000    .0000
EX  0  102    8   0  .1000E+01     .0000     .0000     .0000     .0000    .0000
EX  0  202    8   0 -.1000E+01     .0000     .0000     .0000     .0000    .0000
EX  0  302    8   0 -.1000E+01     .0000     .0000     .0000     .0000    .0000
PT -1
RP  0, 1, 1,  1001, 90, 0, 0, 0
RP  0, 1, 1,  1001, 90,180, 0, 0
RP  0, 1, 361, 1001, 90, 0, 1, 1
RP  0, 361, 1, 1001, 0, 0, 1, 1
EN
