CM Dipole antenna for 80 mtr
CE
GW 1 19 -19.64646 0.0 20 -0.5 0.0 20 0.001
GW 2 1 -0.5 0.0 20 0.5 0.0 20 0.001
GW 3 19 0.5 0.0 20 19.64646 0.0 20 0.001
GE 0
GN 2 0 0 0 14 .006
EX 0 2 1 01 1 0
FR 0 1 0 0 3.68
XQ
