CM 80m Bruce array over Sommerfeld ground (GN 2)
CM Used to validate PR #110 (gshank L1 norm) and #111 (evlua contour)
CM Expected: impedance ~299 + j5.9 (matches Fortran nec2dxs)
CE
GW 1,5,0.,-32.8939,12.49135,0.,-44.96888,12.49135,.0010262
GW 2,11,0.,-44.96888,12.49135,0.,-44.96888,33.72666,.0010262
GW 3,11,0.,-44.96888,33.72666,0.,-22.48444,33.72666,.0010262
GW 4,11,0.,-22.48444,33.72666,0.,-22.48444,12.49135,.0010262
GW 5,11,0.,-22.48444,12.49135,0.,0.,12.49135,.0010262
GW 6,11,0.,0.,12.49135,0.,0.,33.72666,.0010262
GW 7,11,0.,0.,33.72666,0.,22.48444,33.72666,.0010262
GW 8,11,0.,22.48444,33.72666,0.,22.48444,12.49135,.0010262
GW 9,11,0.,22.48444,12.49135,0.,44.96888,12.49135,.0010262
GW 10,11,0.,44.96888,12.49135,0.,44.96888,33.72666,.0010262
GW 11,5,0.,44.96888,33.72666,0.,32.8939,33.72666,.0010262
GE 1
LD 5,1,0,0, 5.7471E+7,1.
LD 5,2,0,0, 5.7471E+7,1.
LD 5,3,0,0, 5.7471E+7,1.
LD 5,4,0,0, 5.7471E+7,1.
LD 5,5,0,0, 5.7471E+7,1.
LD 5,6,0,0, 5.7471E+7,1.
LD 5,7,0,0, 5.7471E+7,1.
LD 5,8,0,0, 5.7471E+7,1.
LD 5,9,0,0, 5.7471E+7,1.
LD 5,10,0,0, 5.7471E+7,1.
LD 5,11,0,0, 5.7471E+7,1.
FR 0,1,0,0,3.6
GN 2,0,0,0,13.,.005
EX 0,6,6,0,1.414214,0.
RP 0,181,1,1000,90.,0.,-1.,0.,0.
EN
