CM     DISCONE
CE
GW 1,1,0.,0.,18.288,.08473,0.,18.288,.00129
GW 2,3,.08473,0.,18.288,.4572,0.,18.288,.00129
GW 3,5,.4572,0.,18.288,1.8288,0.,18.288,.00129
GW 4,10,1.8288,0.,18.288,5.4864,0.,18.288,.00129
GW 5,8,5.4864,0.,18.288,9.144,0.,18.288,.00129
GW 6,1,0.,0.,18.288,.08311,.01653,18.288,.00129
GW 7,3,.08311,.01653,18.288,.44842,.0892,18.288,.00129
GW 8,5,.44842,.0892,18.288,1.79366,.35678,18.288,.00129
GW 9,10,1.79366,.35678,18.288,5.38098,1.07034,18.288,.00129
GW 10,8,5.38098,1.07034,18.288,8.9683,1.78391,18.288,.00129
GW 11,1,0.,0.,18.288,.07828,.03243,18.288,.00129
GW 12,3,.07828,.03243,18.288,.4224,.17496,18.288,.00129
GW 13,5,.4224,.17496,18.288,1.68959,.69985,18.288,.00129
GW 14,10,1.68959,.69985,18.288,5.06877,2.09955,18.288,.00129
GW 15,8,5.06877,2.09955,18.288,8.44795,3.49926,18.288,.00129
GW 16,1,0.,0.,18.288,.07045,.04708,18.288,.00129
GW 17,3,.07045,.04708,18.288,.38015,.25401,18.288,.00129
GW 18,5,.38015,.25401,18.288,1.52059,1.01603,18.288,.00129
GW 19,10,1.52059,1.01603,18.288,4.56177,3.04808,18.288,.00129
GW 20,8,4.56177,3.04808,18.288,7.60296,5.08013,18.288,.00129
GW 21,1,0.,0.,18.288,.05992,.05992,18.288,.00129
GW 22,3,.05992,.05992,18.288,.32329,.32329,18.288,.00129
GW 23,5,.32329,.32329,18.288,1.29316,1.29316,18.288,.00129
GW 24,10,1.29316,1.29316,18.288,3.87947,3.87947,18.288,.00129
GW 25,8,3.87947,3.87947,18.288,6.46578,6.46578,18.288,.00129
GW 26,1,0.,0.,18.288,.04708,.07045,18.288,.00129
GW 27,3,.04708,.07045,18.288,.25401,.38015,18.288,.00129
GW 28,5,.25401,.38015,18.288,1.01603,1.52059,18.288,.00129
GW 29,10,1.01603,1.52059,18.288,3.04808,4.56177,18.288,.00129
GW 30,8,3.04808,4.56177,18.288,5.08013,7.60296,18.288,.00129
GW 31,1,0.,0.,18.288,.03243,.07828,18.288,.00129
GW 32,3,.03243,.07828,18.288,.17496,.4224,18.288,.00129
GW 33,5,.17496,.4224,18.288,.69985,1.68959,18.288,.00129
GW 34,10,.69985,1.68959,18.288,2.09955,5.06877,18.288,.00129
GW 35,8,2.09955,5.06877,18.288,3.49926,8.44795,18.288,.00129
GW 36,1,0.,0.,18.288,.01653,.08311,18.288,.00129
GW 37,3,.01653,.08311,18.288,.0892,.44841,18.288,.00129
GW 38,5,.0892,.44841,18.288,.35678,1.79366,18.288,.00129
GW 39,10,.35678,1.79366,18.288,1.07034,5.38098,18.288,.00129
GW 40,8,1.07034,5.38098,18.288,1.7839,8.9683,18.288,.00129
GW 41,1,0.,0.,18.288,0.,.08473,18.288,.00129
GW 42,3,0.,.08473,18.288,0.,.4572,18.288,.00129
GW 43,5,0.,.4572,18.288,0.,1.8288,18.288,.00129
GW 44,10,0.,1.8288,18.288,0.,5.4864,18.288,.00129
GW 45,8,0.,5.4864,18.288,0.,9.144,18.288,.00129
GW 46,1,0.,0.,18.288,-.0165,.08311,18.288,.00129
GW 47,3,-.0165,.08311,18.288,-.0892,.44841,18.288,.00129
GW 48,5,-.0892,.44841,18.288,-.3567,1.79366,18.288,.00129
GW 49,10,-.3567,1.79366,18.288,-1.0703,5.38098,18.288,.00129
GW 50,8,-1.0703,5.38098,18.288,-1.7839,8.9683,18.288,.00129
GW 51,1,0.,0.,18.288,-.0324,.07828,18.288,.00129
GW 52,3,-.0324,.07828,18.288,-.1749,.4224,18.288,.00129
GW 53,5,-.1749,.4224,18.288,-.6998,1.68959,18.288,.00129
GW 54,10,-.6998,1.68959,18.288,-2.0995,5.06877,18.288,.00129
GW 55,8,-2.0995,5.06877,18.288,-3.4992,8.44795,18.288,.00129
GW 56,1,0.,0.,18.288,-.047,.07045,18.288,.00129
GW 57,3,-.047,.07045,18.288,-.254,.38015,18.288,.00129
GW 58,5,-.254,.38015,18.288,-1.016,1.52059,18.288,.00129
GW 59,10,-1.016,1.52059,18.288,-3.048,4.56177,18.288,.00129
GW 60,8,-3.048,4.56177,18.288,-5.0801,7.60296,18.288,.00129
GW 61,1,0.,0.,18.288,-.0599,.05992,18.288,.00129
GW 62,3,-.0599,.05992,18.288,-.3232,.32329,18.288,.00129
GW 63,5,-.3232,.32329,18.288,-1.2931,1.29316,18.288,.00129
GW 64,10,-1.2931,1.29316,18.288,-3.8794,3.87947,18.288,.00129
GW 65,8,-3.8794,3.87947,18.288,-6.4657,6.46578,18.288,.00129
GW 66,1,0.,0.,18.288,-.0704,.04708,18.288,.00129
GW 67,3,-.0704,.04708,18.288,-.3801,.25401,18.288,.00129
GW 68,5,-.3801,.25401,18.288,-1.5205,1.01603,18.288,.00129
GW 69,10,-1.5205,1.01603,18.288,-4.5617,3.04808,18.288,.00129
GW 70,8,-4.5617,3.04808,18.288,-7.6029,5.08013,18.288,.00129
GW 71,1,0.,0.,18.288,-.0782,.03243,18.288,.00129
GW 72,3,-.0782,.03243,18.288,-.4224,.17496,18.288,.00129
GW 73,5,-.4224,.17496,18.288,-1.6895,.69985,18.288,.00129
GW 74,10,-1.6895,.69985,18.288,-5.0687,2.09955,18.288,.00129
GW 75,8,-5.0687,2.09955,18.288,-8.4479,3.49925,18.288,.00129
GW 76,1,0.,0.,18.288,-.0831,.01653,18.288,.00129
GW 77,3,-.0831,.01653,18.288,-.4484,.0892,18.288,.00129
GW 78,5,-.4484,.0892,18.288,-1.7936,.35678,18.288,.00129
GW 79,10,-1.7936,.35678,18.288,-5.3809,1.07034,18.288,.00129
GW 80,8,-5.3809,1.07034,18.288,-8.9683,1.7839,18.288,.00129
GW 81,1,0.,0.,18.288,-.0847,0.,18.288,.00129
GW 82,3,-.0847,0.,18.288,-.4572,0.,18.288,.00129
GW 83,5,-.4572,0.,18.288,-1.8288,0.,18.288,.00129
GW 84,10,-1.8288,0.,18.288,-5.4864,0.,18.288,.00129
GW 85,8,-5.4864,0.,18.288,-9.144,0.,18.288,.00129
GW 86,1,0.,0.,18.288,-.0831,-.0165,18.288,.00129
GW 87,3,-.0831,-.0165,18.288,-.4484,-.0892,18.288,.00129
GW 88,5,-.4484,-.0892,18.288,-1.7936,-.3567,18.288,.00129
GW 89,10,-1.7936,-.3567,18.288,-5.3809,-1.0703,18.288,.00129
GW 90,8,-5.3809,-1.0703,18.288,-8.9683,-1.7839,18.288,.00129
GW 91,1,0.,0.,18.288,-.0782,-.0324,18.288,.00129
GW 92,3,-.0782,-.0324,18.288,-.4224,-.1749,18.288,.00129
GW 93,5,-.4224,-.1749,18.288,-1.6895,-.6998,18.288,.00129
GW 94,10,-1.6895,-.6998,18.288,-5.0687,-2.0995,18.288,.00129
GW 95,8,-5.0687,-2.0995,18.288,-8.4479,-3.4992,18.288,.00129
GW 96,1,0.,0.,18.288,-.0704,-.047,18.288,.00129
GW 97,3,-.0704,-.047,18.288,-.3801,-.254,18.288,.00129
GW 98,5,-.3801,-.254,18.288,-1.5205,-1.016,18.288,.00129
GW 99,10,-1.5205,-1.016,18.288,-4.5617,-3.048,18.288,.00129
GW 100,8,-4.5617,-3.048,18.288,-7.6029,-5.0801,18.288,.00129
GW 101,1,0.,0.,18.288,-.0599,-.0599,18.288,.00129
GW 102,3,-.0599,-.0599,18.288,-.3232,-.3232,18.288,.00129
GW 103,5,-.3232,-.3232,18.288,-1.2931,-1.2931,18.288,.00129
GW 104,10,-1.2931,-1.2931,18.288,-3.8794,-3.8794,18.288,.00129
GW 105,8,-3.8794,-3.8794,18.288,-6.4657,-6.4657,18.288,.00129
GW 106,1,0.,0.,18.288,-.047,-.0704,18.288,.00129
GW 107,3,-.047,-.0704,18.288,-.254,-.3801,18.288,.00129
GW 108,5,-.254,-.3801,18.288,-1.016,-1.5205,18.288,.00129
GW 109,10,-1.016,-1.5205,18.288,-3.048,-4.5617,18.288,.00129
GW 110,8,-3.048,-4.5617,18.288,-5.0801,-7.6029,18.288,.00129
GW 111,1,0.,0.,18.288,-.0324,-.0782,18.288,.00129
GW 112,3,-.0324,-.0782,18.288,-.1749,-.4224,18.288,.00129
GW 113,5,-.1749,-.4224,18.288,-.6998,-1.6895,18.288,.00129
GW 114,10,-.6998,-1.6895,18.288,-2.0995,-5.0687,18.288,.00129
GW 115,8,-2.0995,-5.0687,18.288,-3.4992,-8.4479,18.288,.00129
GW 116,1,0.,0.,18.288,-.0165,-.0831,18.288,.00129
GW 117,3,-.0165,-.0831,18.288,-.0892,-.4484,18.288,.00129
GW 118,5,-.0892,-.4484,18.288,-.3567,-1.7936,18.288,.00129
GW 119,10,-.3567,-1.7936,18.288,-1.0703,-5.3809,18.288,.00129
GW 120,8,-1.0703,-5.3809,18.288,-1.7839,-8.9683,18.288,.00129
GW 121,1,0.,0.,18.288,0.,-.0847,18.288,.00129
GW 122,3,0.,-.0847,18.288,0.,-.4572,18.288,.00129
GW 123,5,0.,-.4572,18.288,0.,-1.8288,18.288,.00129
GW 124,10,0.,-1.8288,18.288,0.,-5.4864,18.288,.00129
GW 125,8,0.,-5.4864,18.288,.00001,-9.144,18.288,.00129
GW 126,1,0.,0.,18.288,.01653,-.0831,18.288,.00129
GW 127,3,.01653,-.0831,18.288,.0892,-.4484,18.288,.00129
GW 128,5,.0892,-.4484,18.288,.35678,-1.7936,18.288,.00129
GW 129,10,.35678,-1.7936,18.288,1.07035,-5.3809,18.288,.00129
GW 130,8,1.07035,-5.3809,18.288,1.78391,-8.9683,18.288,.00129
GW 131,1,0.,0.,18.288,.03243,-.0782,18.288,.00129
GW 132,3,.03243,-.0782,18.288,.17496,-.4224,18.288,.00129
GW 133,5,.17496,-.4224,18.288,.69985,-1.6895,18.288,.00129
GW 134,10,.69985,-1.6895,18.288,2.09956,-5.0687,18.288,.00129
GW 135,8,2.09956,-5.0687,18.288,3.49926,-8.4479,18.288,.00129
GW 136,1,0.,0.,18.288,.04708,-.0704,18.288,.00129
GW 137,3,.04708,-.0704,18.288,.25401,-.3801,18.288,.00129
GW 138,5,.25401,-.3801,18.288,1.01603,-1.5205,18.288,.00129
GW 139,10,1.01603,-1.5205,18.288,3.04808,-4.5617,18.288,.00129
GW 140,8,3.04808,-4.5617,18.288,5.08014,-7.6029,18.288,.00129
GW 141,1,0.,0.,18.288,.05992,-.0599,18.288,.00129
GW 142,3,.05992,-.0599,18.288,.32329,-.3232,18.288,.00129
GW 143,5,.32329,-.3232,18.288,1.29316,-1.2931,18.288,.00129
GW 144,10,1.29316,-1.2931,18.288,3.87947,-3.8794,18.288,.00129
GW 145,8,3.87947,-3.8794,18.288,6.46579,-6.4657,18.288,.00129
GW 146,1,0.,0.,18.288,.07045,-.047,18.288,.00129
GW 147,3,.07045,-.047,18.288,.38015,-.254,18.288,.00129
GW 148,5,.38015,-.254,18.288,1.52059,-1.016,18.288,.00129
GW 149,10,1.52059,-1.016,18.288,4.56177,-3.048,18.288,.00129
GW 150,8,4.56177,-3.048,18.288,7.60296,-5.0801,18.288,.00129
GW 151,1,0.,0.,18.288,.07828,-.0324,18.288,.00129
GW 152,3,.07828,-.0324,18.288,.4224,-.1749,18.288,.00129
GW 153,5,.4224,-.1749,18.288,1.68959,-.6998,18.288,.00129
GW 154,10,1.68959,-.6998,18.288,5.06877,-2.0995,18.288,.00129
GW 155,8,5.06877,-2.0995,18.288,8.44795,-3.4992,18.288,.00129
GW 156,1,0.,0.,18.288,.08311,-.0165,18.288,.00129
GW 157,3,.08311,-.0165,18.288,.44841,-.0891,18.288,.00129
GW 158,5,.44841,-.0891,18.288,1.79366,-.3567,18.288,.00129
GW 159,10,1.79366,-.3567,18.288,5.38098,-1.0703,18.288,.00129
GW 160,8,5.38098,-1.0703,18.288,8.9683,-1.7839,18.288,.00129
GW 161,4,9.144,0.,18.288,8.9683,1.78391,18.288,.00129
GW 162,4,8.9683,1.78391,18.288,8.44795,3.49926,18.288,.00129
GW 163,4,8.44795,3.49926,18.288,7.60296,5.08013,18.288,.00129
GW 164,4,7.60296,5.08013,18.288,6.46578,6.46578,18.288,.00129
GW 165,4,6.46578,6.46578,18.288,5.08013,7.60296,18.288,.00129
GW 166,4,5.08013,7.60296,18.288,3.49926,8.44795,18.288,.00129
GW 167,4,3.49926,8.44795,18.288,1.7839,8.9683,18.288,.00129
GW 168,4,1.7839,8.9683,18.288,0.,9.144,18.288,.00129
GW 169,4,0.,9.144,18.288,-1.7839,8.9683,18.288,.00129
GW 170,4,-1.7839,8.9683,18.288,-3.4992,8.44795,18.288,.00129
GW 171,4,-3.4992,8.44795,18.288,-5.0801,7.60296,18.288,.00129
GW 172,4,-5.0801,7.60296,18.288,-6.4657,6.46578,18.288,.00129
GW 173,4,-6.4657,6.46578,18.288,-7.6029,5.08013,18.288,.00129
GW 174,4,-7.6029,5.08013,18.288,-8.4479,3.49925,18.288,.00129
GW 175,4,-8.4479,3.49925,18.288,-8.9683,1.7839,18.288,.00129
GW 176,4,-8.9683,1.7839,18.288,-9.144,0.,18.288,.00129
GW 177,4,-9.144,0.,18.288,-8.9683,-1.7839,18.288,.00129
GW 178,4,-8.9683,-1.7839,18.288,-8.4479,-3.4992,18.288,.00129
GW 179,4,-8.4479,-3.4992,18.288,-7.6029,-5.0801,18.288,.00129
GW 180,4,-7.6029,-5.0801,18.288,-6.4657,-6.4657,18.288,.00129
GW 181,4,-6.4657,-6.4657,18.288,-5.0801,-7.6029,18.288,.00129
GW 182,4,-5.0801,-7.6029,18.288,-3.4992,-8.4479,18.288,.00129
GW 183,4,-3.4992,-8.4479,18.288,-1.7839,-8.9683,18.288,.00129
GW 184,4,-1.7839,-8.9683,18.288,.00001,-9.144,18.288,.00129
GW 185,4,.00001,-9.144,18.288,1.78391,-8.9683,18.288,.00129
GW 186,4,1.78391,-8.9683,18.288,3.49926,-8.4479,18.288,.00129
GW 187,4,3.49926,-8.4479,18.288,5.08014,-7.6029,18.288,.00129
GW 188,4,5.08014,-7.6029,18.288,6.46579,-6.4657,18.288,.00129
GW 189,4,6.46579,-6.4657,18.288,7.60296,-5.0801,18.288,.00129
GW 190,4,7.60296,-5.0801,18.288,8.44795,-3.4992,18.288,.00129
GW 191,4,8.44795,-3.4992,18.288,8.9683,-1.7839,18.288,.00129
GW 192,4,8.9683,-1.7839,18.288,9.14399,.00001,18.288,.00129
GW 193,1,0.,0.,18.034,0.,0.,17.9493,.00129
GW 194,1,0.,0.,17.9493,0.,0.,17.7799,.00129
GW 195,3,0.,0.,17.7799,0.,0.,17.0172,.00129
GW 196,5,0.,0.,17.0172,0.,0.,14.7312,.00129
GW 197,29,0.,0.,14.7312,0.,0.,0.,.00129
GW 198,3,0.,0.,18.034,0.,0.,18.288,.00129
GW 199,3,0.,0.,18.034,.3048,0.,18.0341,.00129
GW 200,1,.3048,0.,18.0341,.34894,0.,17.9585,.00129
GW 201,1,.34894,0.,17.9585,.43723,0.,17.8075,.00129
GW 202,39,.43723,0.,17.8075,10.668,0.,.3048,.00129
GW 203,3,0.,0.,18.034,.29894,.05946,18.0341,.00129
GW 204,1,.29894,.05946,18.0341,.34224,.06808,17.9585,.00129
GW 205,1,.34224,.06808,17.9585,.42883,.0853,17.8075,.00129
GW 206,39,.42883,.0853,17.8075,10.463,2.08122,.3048,.00129
GW 207,3,0.,0.,18.034,.2816,.11664,18.0341,.00129
GW 208,1,.2816,.11664,18.0341,.32238,.13354,17.9585,.00129
GW 209,1,.32238,.13354,17.9585,.40395,.16732,17.8075,.00129
GW 210,39,.40395,.16732,17.8075,9.85595,4.08247,.3048,.00129
GW 211,3,0.,0.,18.034,.25343,.16934,18.0341,.00129
GW 212,1,.25343,.16934,18.0341,.29014,.19386,17.9585,.00129
GW 213,1,.29014,.19386,17.9585,.36355,.24291,17.8075,.00129
GW 214,39,.36355,.24291,17.8075,8.87012,5.92682,.3048,.00129
GW 215,3,0.,0.,18.034,.21553,.21553,18.0341,.00129
GW 216,1,.21553,.21553,18.0341,.24674,.24674,17.9585,.00129
GW 217,1,.24674,.24674,17.9585,.30917,.30917,17.8075,.00129
GW 218,39,.30917,.30917,17.8075,7.54341,7.54342,.3048,.00129
GW 219,3,0.,0.,18.034,.16934,.25343,18.0341,.00129
GW 220,1,.16934,.25343,18.0341,.19386,.29014,17.9585,.00129
GW 221,1,.19386,.29014,17.9585,.24291,.36355,17.8075,.00129
GW 222,39,.24291,.36355,17.8075,5.92682,8.87012,.3048,.00129
GW 223,3,0.,0.,18.034,.11664,.2816,18.0341,.00129
GW 224,1,.11664,.2816,18.0341,.13354,.32238,17.9585,.00129
GW 225,1,.13354,.32238,17.9585,.16732,.40395,17.8075,.00129
GW 226,39,.16732,.40395,17.8075,4.08247,9.85595,.3048,.00129
GW 227,3,0.,0.,18.034,.05946,.29894,18.0341,.00129
GW 228,1,.05946,.29894,18.0341,.06808,.34224,17.9585,.00129
GW 229,1,.06808,.34224,17.9585,.0853,.42883,17.8075,.00129
GW 230,39,.0853,.42883,17.8075,2.08122,10.463,.3048,.00129
GW 231,3,0.,0.,18.034,0.,.3048,18.0341,.00129
GW 232,1,0.,.3048,18.0341,0.,.34894,17.9585,.00129
GW 233,1,0.,.34894,17.9585,0.,.43723,17.8075,.00129
GW 234,39,0.,.43723,17.8075,0.,10.668,.3048,.00129
GW 235,3,0.,0.,18.034,-.0594,.29894,18.0341,.00129
GW 236,1,-.0594,.29894,18.0341,-.068,.34224,17.9585,.00129
GW 237,1,-.068,.34224,17.9585,-.0853,.42883,17.8075,.00129
GW 238,39,-.0853,.42883,17.8075,-2.0812,10.463,.3048,.00129
GW 239,3,0.,0.,18.034,-.1166,.2816,18.0341,.00129
GW 240,1,-.1166,.2816,18.0341,-.1335,.32238,17.9585,.00129
GW 241,1,-.1335,.32238,17.9585,-.1673,.40395,17.8075,.00129
GW 242,39,-.1673,.40395,17.8075,-4.0824,9.85594,.3048,.00129
GW 243,3,0.,0.,18.034,-.1693,.25343,18.0341,.00129
GW 244,1,-.1693,.25343,18.0341,-.1938,.29014,17.9585,.00129
GW 245,1,-.1938,.29014,17.9585,-.2429,.36355,17.8075,.00129
GW 246,39,-.2429,.36355,17.8075,-5.9268,8.87011,.3048,.00129
GW 247,3,0.,0.,18.034,-.2155,.21553,18.0341,.00129
GW 248,1,-.2155,.21553,18.0341,-.2467,.24674,17.9585,.00129
GW 249,1,-.2467,.24674,17.9585,-.3091,.30917,17.8075,.00129
GW 250,39,-.3091,.30917,17.8075,-7.5434,7.54341,.3048,.00129
GW 251,3,0.,0.,18.034,-.2534,.16934,18.0341,.00129
GW 252,1,-.2534,.16934,18.0341,-.2901,.19386,17.9585,.00129
GW 253,1,-.2901,.19386,17.9585,-.3635,.24291,17.8075,.00129
GW 254,39,-.3635,.24291,17.8075,-8.8701,5.92682,.3048,.00129
GW 255,3,0.,0.,18.034,-.2816,.11664,18.0341,.00129
GW 256,1,-.2816,.11664,18.0341,-.3223,.13354,17.9585,.00129
GW 257,1,-.3223,.13354,17.9585,-.4039,.16732,17.8075,.00129
GW 258,39,-.4039,.16732,17.8075,-9.8559,4.08246,.3048,.00129
GW 259,3,0.,0.,18.034,-.2989,.05946,18.0341,.00129
GW 260,1,-.2989,.05946,18.0341,-.3422,.06808,17.9585,.00129
GW 261,1,-.3422,.06808,17.9585,-.4288,.0853,17.8075,.00129
GW 262,39,-.4288,.0853,17.8075,-10.463,2.08122,.3048,.00129
GW 263,3,0.,0.,18.034,-.3048,0.,18.0341,.00129
GW 264,1,-.3048,0.,18.0341,-.3489,0.,17.9585,.00129
GW 265,1,-.3489,0.,17.9585,-.4372,0.,17.8075,.00129
GW 266,39,-.4372,0.,17.8075,-10.668,0.,.3048,.00129
GW 267,3,0.,0.,18.034,-.2989,-.0594,18.0341,.00129
GW 268,1,-.2989,-.0594,18.0341,-.3422,-.068,17.9585,.00129
GW 269,1,-.3422,-.068,17.9585,-.4288,-.0853,17.8075,.00129
GW 270,39,-.4288,-.0853,17.8075,-10.463,-2.0812,.3048,.00129
GW 271,3,0.,0.,18.034,-.2816,-.1166,18.0341,.00129
GW 272,1,-.2816,-.1166,18.0341,-.3223,-.1335,17.9585,.00129
GW 273,1,-.3223,-.1335,17.9585,-.4039,-.1673,17.8075,.00129
GW 274,39,-.4039,-.1673,17.8075,-9.8559,-4.0824,.3048,.00129
GW 275,3,0.,0.,18.034,-.2534,-.1693,18.0341,.00129
GW 276,1,-.2534,-.1693,18.0341,-.2901,-.1938,17.9585,.00129
GW 277,1,-.2901,-.1938,17.9585,-.3635,-.2429,17.8075,.00129
GW 278,39,-.3635,-.2429,17.8075,-8.8701,-5.9268,.3048,.00129
GW 279,3,0.,0.,18.034,-.2155,-.2155,18.0341,.00129
GW 280,1,-.2155,-.2155,18.0341,-.2467,-.2467,17.9585,.00129
GW 281,1,-.2467,-.2467,17.9585,-.3091,-.3091,17.8075,.00129
GW 282,39,-.3091,-.3091,17.8075,-7.5434,-7.5434,.3048,.00129
GW 283,3,0.,0.,18.034,-.1693,-.2534,18.0341,.00129
GW 284,1,-.1693,-.2534,18.0341,-.1938,-.2901,17.9585,.00129
GW 285,1,-.1938,-.2901,17.9585,-.2429,-.3635,17.8075,.00129
GW 286,39,-.2429,-.3635,17.8075,-5.9268,-8.8701,.3048,.00129
GW 287,3,0.,0.,18.034,-.1166,-.2816,18.0341,.00129
GW 288,1,-.1166,-.2816,18.0341,-.1335,-.3223,17.9585,.00129
GW 289,1,-.1335,-.3223,17.9585,-.1673,-.4039,17.8075,.00129
GW 290,39,-.1673,-.4039,17.8075,-4.0824,-9.8559,.3048,.00129
GW 291,3,0.,0.,18.034,-.0594,-.2989,18.0341,.00129
GW 292,1,-.0594,-.2989,18.0341,-.068,-.3422,17.9585,.00129
GW 293,1,-.068,-.3422,17.9585,-.0853,-.4288,17.8075,.00129
GW 294,39,-.0853,-.4288,17.8075,-2.0812,-10.463,.3048,.00129
GW 295,3,0.,0.,18.034,0.,-.3048,18.0341,.00129
GW 296,1,0.,-.3048,18.0341,0.,-.3489,17.9585,.00129
GW 297,1,0.,-.3489,17.9585,0.,-.4372,17.8075,.00129
GW 298,39,0.,-.4372,17.8075,.00001,-10.667,.3048,.00129
GW 299,3,0.,0.,18.034,.05946,-.2989,18.0341,.00129
GW 300,1,.05946,-.2989,18.0341,.06808,-.3422,17.9585,.00129
GW 301,1,.06808,-.3422,17.9585,.0853,-.4288,17.8075,.00129
GW 302,39,.0853,-.4288,17.8075,2.08123,-10.463,.3048,.00129
GW 303,3,0.,0.,18.034,.11664,-.2816,18.0341,.00129
GW 304,1,.11664,-.2816,18.0341,.13354,-.3223,17.9585,.00129
GW 305,1,.13354,-.3223,17.9585,.16732,-.4039,17.8075,.00129
GW 306,39,.16732,-.4039,17.8075,4.08247,-9.8559,.3048,.00129
GW 307,3,0.,0.,18.034,.16934,-.2534,18.0341,.00129
GW 308,1,.16934,-.2534,18.0341,.19386,-.2901,17.9585,.00129
GW 309,1,.19386,-.2901,17.9585,.24291,-.3635,17.8075,.00129
GW 310,39,.24291,-.3635,17.8075,5.92683,-8.8701,.3048,.00129
GW 311,3,0.,0.,18.034,.21553,-.2155,18.0341,.00129
GW 312,1,.21553,-.2155,18.0341,.24674,-.2467,17.9585,.00129
GW 313,1,.24674,-.2467,17.9585,.30917,-.3091,17.8075,.00129
GW 314,39,.30917,-.3091,17.8075,7.54342,-7.5434,.3048,.00129
GW 315,3,0.,0.,18.034,.25343,-.1693,18.0341,.00129
GW 316,1,.25343,-.1693,18.0341,.29014,-.1938,17.9585,.00129
GW 317,1,.29014,-.1938,17.9585,.36355,-.2429,17.8075,.00129
GW 318,39,.36355,-.2429,17.8075,8.87012,-5.9268,.3048,.00129
GW 319,3,0.,0.,18.034,.2816,-.1166,18.0341,.00129
GW 320,1,.2816,-.1166,18.0341,.32238,-.1335,17.9585,.00129
GW 321,1,.32238,-.1335,17.9585,.40395,-.1673,17.8075,.00129
GW 322,39,.40395,-.1673,17.8075,9.85594,-4.0824,.3048,.00129
GW 323,3,0.,0.,18.034,.29894,-.0594,18.0341,.00129
GW 324,1,.29894,-.0594,18.0341,.34224,-.068,17.9585,.00129
GW 325,1,.34224,-.068,17.9585,.42883,-.0853,17.8075,.00129
GW 326,39,.42883,-.0853,17.8075,10.463,-2.0812,.3048,.00129
GW 327,4,10.668,0.,.3048,10.463,2.08122,.3048,.00129
GW 328,4,10.463,2.08122,.3048,9.85595,4.08247,.3048,.00129
GW 329,4,9.85595,4.08247,.3048,8.87012,5.92682,.3048,.00129
GW 330,4,8.87012,5.92682,.3048,7.54341,7.54342,.3048,.00129
GW 331,4,7.54341,7.54342,.3048,5.92682,8.87012,.3048,.00129
GW 332,4,5.92682,8.87012,.3048,4.08247,9.85595,.3048,.00129
GW 333,4,4.08247,9.85595,.3048,2.08122,10.463,.3048,.00129
GW 334,4,2.08122,10.463,.3048,0.,10.668,.3048,.00129
GW 335,4,0.,10.668,.3048,-2.0812,10.463,.3048,.00129
GW 336,4,-2.0812,10.463,.3048,-4.0824,9.85594,.3048,.00129
GW 337,4,-4.0824,9.85594,.3048,-5.9268,8.87011,.3048,.00129
GW 338,4,-5.9268,8.87011,.3048,-7.5434,7.54341,.3048,.00129
GW 339,4,-7.5434,7.54341,.3048,-8.8701,5.92682,.3048,.00129
GW 340,4,-8.8701,5.92682,.3048,-9.8559,4.08246,.3048,.00129
GW 341,4,-9.8559,4.08246,.3048,-10.463,2.08122,.3048,.00129
GW 342,4,-10.463,2.08122,.3048,-10.668,0.,.3048,.00129
GW 343,4,-10.668,0.,.3048,-10.463,-2.0812,.3048,.00129
GW 344,4,-10.463,-2.0812,.3048,-9.8559,-4.0824,.3048,.00129
GW 345,4,-9.8559,-4.0824,.3048,-8.8701,-5.9268,.3048,.00129
GW 346,4,-8.8701,-5.9268,.3048,-7.5434,-7.5434,.3048,.00129
GW 347,4,-7.5434,-7.5434,.3048,-5.9268,-8.8701,.3048,.00129
GW 348,4,-5.9268,-8.8701,.3048,-4.0824,-9.8559,.3048,.00129
GW 349,4,-4.0824,-9.8559,.3048,-2.0812,-10.463,.3048,.00129
GW 350,4,-2.0812,-10.463,.3048,.00001,-10.667,.3048,.00129
GW 351,4,.00001,-10.667,.3048,2.08123,-10.463,.3048,.00129
GW 352,4,2.08123,-10.463,.3048,4.08247,-9.8559,.3048,.00129
GW 353,4,4.08247,-9.8559,.3048,5.92683,-8.8701,.3048,.00129
GW 354,4,5.92683,-8.8701,.3048,7.54342,-7.5434,.3048,.00129
GW 355,4,7.54342,-7.5434,.3048,8.87012,-5.9268,.3048,.00129
GW 356,4,8.87012,-5.9268,.3048,9.85594,-4.0824,.3048,.00129
GW 357,4,9.85594,-4.0824,.3048,10.463,-2.0812,.3048,.00129
GW 358,4,10.463,-2.0812,.3048,10.6679,.00001,.3048,.00129
GE 1
