CM Elementary current source (EX type 4) coincident with a patch centroid.
CM Three patches tile a plate in the xy-plane at x = +0.1, 0, -0.1;
CM the source sits exactly on the middle patch centroid at the origin.
CE
GW     1     3  5.00000E-01 -5.00000E-02  0.00000E+00  5.00000E-01  5.00000E-02  0.00000E+00  1.00000E-03
SP     0     0  1.00000E-01  0.00000E+00  0.00000E+00  9.00000E+01  0.00000E+00  1.00000E-02
SP     0     0  0.00000E+00  0.00000E+00  0.00000E+00  9.00000E+01  0.00000E+00  1.00000E-02
SP     0     0 -1.00000E-01  0.00000E+00  0.00000E+00  9.00000E+01  0.00000E+00  1.00000E-02
GE     0     0
FR     0     1     0     0  3.00000E+02  0.00000E+00  0.00000E+00  0.00000E+00  0.00000E+00  0.00000E+00
EX     4     0     0     0  0.00000E+00  0.00000E+00  0.00000E+00  9.00000E+01  0.00000E+00  1.00000E+00
RP     0    19    37  1000  0.00000E+00  0.00000E+00  1.00000E+01  1.00000E+01  0.00000E+00  0.00000E+00
EN     0     0     0     0  0.00000E+00  0.00000E+00  0.00000E+00  0.00000E+00  0.00000E+00  0.00000E+00
