CE EXAMPLE 1. CENTER FED LINEAR ANTENNA
GW 0 7 0. 0. -.25 0. 0. .25 .001
GE
EX 0 0 4 0 1.
XQ
ld 0 0 4 4 10. 3.000E-09 5.300E-11
PQ
NE 0 1 1 15 .001 0 0 0. 0. .01786
EN
