CMEXAMPLE 3. VERTICAL HALF WAVELENGTH ANTENNA OVER GROUND 
CM           EXTENDED THIN WIRE KERNEL USED 
CM           1. PERFECT GROUND 
CM           2. IMPERFECT GROUND INCLUDING GROUND WAVE AND RECEIVING 
CE              PATTERN CALCULATIONS 
GW 0 9 0. 0. 2. 0. 0. 7. .03 
GE 1 
EK 
FR 0 1 0 0 30. 
EX 0 0 5 0 1. 
GN 1
RP 0 10 2 1301 0. 0. 10. 90. 
GN 0 0 0 0 6. 1.000E-03  
RP 0 10 2 1301 0. 0. 10. 90. 
RP 1 10 1 0 1. 0. 2. 0. 1.000E+05 
EX 1 10 1 0 0. 0. 0. 10.
PT 2 0 5 5 
XQ 
EN
