CM nec2++  -i necError.nec -g
CE 
GW 1 11 0 0 0.0906315 0 0.131159 0.0906315 0.1
GE 0
GN 1 0 0 0 0 0
FR 0 1 0 0 1600 0
EX 0 1 1 0 1 0 0  
RP 0 33 36 1011 -80 0 5.0 5.0 1.0 1.0
EN
