CEAn example that breaks
GW 0 13 -0.1875 0.0 0.0 0.1875 0.0 0.0 0.001
GE
FR 0 1 0 0 400
EX 0 0 7 0 1.0
GN -1 0 0 0 0 0
NE 0 1 1 200 0 0 0 0.0 0.0 0.005
NH 0 1 1 200 0 0 0 0.0 0.0 0.005
EN
