CM Inverted-V 2014-11-13 23:14
CE ----------
GW  1  171  15.50000  0.000000  0.000000  0.000000  0.000000  7.300000  8.14E-04
GW  2  171  -15.5000  0.000000  0.000000  0.000000  0.000000  7.300000  8.14E-04
GW  3  171  0.000000  15.50000  0.000000  0.000000  5.000000  4.877419  8.14E-04
GW  4  171  0.000000  -15.5000  0.000000  0.000000  0.000000  7.200000  8.14E-04
GW  5   49  0.000000  5.000000  0.000000  0.000000  5.000000  4.877419  8.14E-04
GW  6   49  0.000000  5.000000  4.877419  0.000000  0.000000  7.200000  8.14E-04
GE  1
LD  4    1    1    1  300.0000  0.000000                                        
LD  4    4    1    1  300.0000  0.000000                                        
FR  0    1    0    0  5.000000  0.000000
GN  0    0    0    0  13.00000  0.005000
EX  0    3    1    1  1.000000  0.000000                                        
XQ
RP  0    1  360 1000    70.000     0.000     0.000     1.000 5.000E+03
RP  0  360    1 1000   -90.000     0.000     1.000     0.000 5.000E+03
RP  0   91  120 1001     0.000     0.000     2.000     3.000 5.000E+03
XQ
EN
