CM GA - NEC FILE
CE go blue ! 
GW 0 52 0 0 0 0.017 0.042 -0.047 0.001
GW 0 27 0.013 -0.015 0.039 -0.008 0.012 0.044 0.001
GW 0 47 -0.008 0.012 0.044 -0.023 0.047 -0.002 0.001
GW 0 68 0.013 -0.015 0.039 0.039 0.017 -0.036 0.001
GW 0 94 0.039 0.017 -0.036 -0.041 0.035 0.049 0.001
GW 0 68 0.039 0.017 -0.036 0.036 0.01 0.049 0.001
GW 0 46 -0.003 -0.016 -0.039 -0.045 -0.029 -0.001 0.001
GW 0 41 -0.003 -0.016 -0.039 0.012 0.031 -0.023 0.001
GW 0 36 0.012 0.031 -0.023 0.013 0.043 0.021 0.001
GW 0 85 -0.048 -0.025 0.043 0.017 -0.034 -0.042 0.001
GE 0
GN -1
LD 5 0 0 0 3.720E+07 
FR 0 1 0 0 2400
PT -1
EX 1 1 1 0 90 22.5 0 0 0 0 0
RP 0 1 1 0500 90 157.5 0 0
EN
