CM NEC Input File of a 16 element Yagi
CE
GW 15  7   0.00000  -0.34000   0.00000   0.00000   0.34000   0.00000  0.00250
GW 16  7   0.27300  -0.31750   0.00000   0.27300   0.31750   0.00000  0.00250
GW  1  7   0.69300  -0.30500   0.00000   0.69300   0.30500   0.00000  0.00250
GW  2  7   1.11300  -0.30500   0.00000   1.11300   0.30500   0.00000  0.00250
GW  3  7   1.53300  -0.30500   0.00000   1.53300   0.30500   0.00000  0.00250
GW  4  7   1.95300  -0.30500   0.00000   1.95300   0.30500   0.00000  0.00250
GW  5  7   2.37300  -0.30500   0.00000   2.37300   0.30500   0.00000  0.00250
GW  6  7   2.79300  -0.30500   0.00000   2.79300   0.30500   0.00000  0.00250
GW  7  7   3.21300  -0.30500   0.00000   3.21300   0.30500   0.00000  0.00250
GW  8  7   3.63300  -0.30500   0.00000   3.63300   0.30500   0.00000  0.00250
GW  9  7   4.05300  -0.30500   0.00000   4.05300   0.30500   0.00000  0.00250
GW 10  7   4.47300  -0.30500   0.00000   4.47300   0.30500   0.00000  0.00250
GW 11  7   4.89300  -0.30500   0.00000   4.89300   0.30500   0.00000  0.00250
GW 12  7   5.31300  -0.30500   0.00000   5.31300   0.30500   0.00000  0.00250
GW 13  7   5.73300  -0.30500   0.00000   5.73300   0.30500   0.00000  0.00250
GE  0
FR  0  1    0    0  2.20E+02  0.00E+00  0.00E+00  0.00E+00  0.00E+00  0.00E+00
EX  0 16    4    0  1.00E+00  0.00E+00  0.00E+00  0.00E+00  0.00E+00  0.00E+00
RP  0 60   120 1001 0.00E+00  0.00E+00  1.50E+00  3.00E+00  1.00E+04  0.00E+00
EN
